*SPEF "ieee 1481-1999"
*DESIGN "inverter"
*DATE "15:19:10 Sunday April 27, 2025"
*VENDOR "The OpenROAD Project"
*PROGRAM "OpenROAD"
*VERSION "b16bda7e82721d10566ff7e2b68f1ff0be9f9e38"
*DESIGN_FLOW "NAME_SCOPE LOCAL" "PIN_CAP NONE"
*DIVIDER /
*DELIMITER :
*BUS_DELIMITER []
*T_UNIT 1 NS
*C_UNIT 1 PF
*R_UNIT 1 OHM
*L_UNIT 1 HENRY

*NAME_MAP
*3 in[0]
*4 in[1]
*5 in[2]
*6 in[3]
*7 in[4]
*8 in[5]
*9 in[6]
*10 in[7]
*11 out[0]
*12 out[1]
*13 out[2]
*14 out[3]
*15 out[4]
*16 out[5]
*17 out[6]
*18 out[7]
*19 net1
*20 net10
*21 net11
*22 net12
*23 net13
*24 net14
*25 net15
*26 net16
*27 net2
*28 net3
*29 net4
*30 net5
*31 net6
*32 net7
*33 net8
*34 net9
*35 FILLER_0_0_18
*36 FILLER_0_0_26
*37 FILLER_0_0_29
*38 FILLER_0_0_37
*39 FILLER_0_0_9
*40 FILLER_0_10_18
*41 FILLER_0_10_26
*42 FILLER_0_10_29
*43 FILLER_0_10_41
*44 FILLER_0_10_6
*45 FILLER_0_11_15
*46 FILLER_0_11_27
*47 FILLER_0_11_3
*48 FILLER_0_11_39
*49 FILLER_0_11_47
*50 FILLER_0_12_21
*51 FILLER_0_12_27
*52 FILLER_0_12_29
*53 FILLER_0_12_37
*54 FILLER_0_12_9
*55 FILLER_0_1_15
*56 FILLER_0_1_20
*57 FILLER_0_1_3
*58 FILLER_0_1_32
*59 FILLER_0_1_44
*60 FILLER_0_2_11
*61 FILLER_0_2_15
*62 FILLER_0_2_27
*63 FILLER_0_2_29
*64 FILLER_0_2_3
*65 FILLER_0_2_41
*66 FILLER_0_2_47
*67 FILLER_0_3_18
*68 FILLER_0_3_30
*69 FILLER_0_3_42
*70 FILLER_0_3_6
*71 FILLER_0_4_15
*72 FILLER_0_4_19
*73 FILLER_0_4_23
*74 FILLER_0_4_27
*75 FILLER_0_4_29
*76 FILLER_0_4_3
*77 FILLER_0_4_41
*78 FILLER_0_4_47
*79 FILLER_0_5_18
*80 FILLER_0_5_30
*81 FILLER_0_5_42
*82 FILLER_0_5_6
*83 FILLER_0_6_18
*84 FILLER_0_6_26
*85 FILLER_0_6_29
*86 FILLER_0_6_3
*87 FILLER_0_6_41
*88 FILLER_0_6_47
*89 FILLER_0_7_15
*90 FILLER_0_7_27
*91 FILLER_0_7_3
*92 FILLER_0_7_39
*93 FILLER_0_7_44
*94 FILLER_0_8_18
*95 FILLER_0_8_26
*96 FILLER_0_8_29
*97 FILLER_0_8_6
*98 FILLER_0_9_15
*99 FILLER_0_9_19
*100 FILLER_0_9_23
*101 FILLER_0_9_3
*102 FILLER_0_9_35
*103 FILLER_0_9_47
*104 PHY_EDGE_ROW_0_Left_13
*105 PHY_EDGE_ROW_0_Right_0
*106 PHY_EDGE_ROW_10_Left_23
*107 PHY_EDGE_ROW_10_Right_10
*108 PHY_EDGE_ROW_11_Left_24
*109 PHY_EDGE_ROW_11_Right_11
*110 PHY_EDGE_ROW_12_Left_25
*111 PHY_EDGE_ROW_12_Right_12
*112 PHY_EDGE_ROW_1_Left_14
*113 PHY_EDGE_ROW_1_Right_1
*114 PHY_EDGE_ROW_2_Left_15
*115 PHY_EDGE_ROW_2_Right_2
*116 PHY_EDGE_ROW_3_Left_16
*117 PHY_EDGE_ROW_3_Right_3
*118 PHY_EDGE_ROW_4_Left_17
*119 PHY_EDGE_ROW_4_Right_4
*120 PHY_EDGE_ROW_5_Left_18
*121 PHY_EDGE_ROW_5_Right_5
*122 PHY_EDGE_ROW_6_Left_19
*123 PHY_EDGE_ROW_6_Right_6
*124 PHY_EDGE_ROW_7_Left_20
*125 PHY_EDGE_ROW_7_Right_7
*126 PHY_EDGE_ROW_8_Left_21
*127 PHY_EDGE_ROW_8_Right_8
*128 PHY_EDGE_ROW_9_Left_22
*129 PHY_EDGE_ROW_9_Right_9
*130 TAP_TAPCELL_ROW_0_26
*131 TAP_TAPCELL_ROW_10_31
*132 TAP_TAPCELL_ROW_12_32
*133 TAP_TAPCELL_ROW_2_27
*134 TAP_TAPCELL_ROW_4_28
*135 TAP_TAPCELL_ROW_6_29
*136 TAP_TAPCELL_ROW_8_30
*137 _0_
*138 _1_
*139 _2_
*140 _3_
*141 _4_
*142 _5_
*143 _6_
*144 _7_
*145 input1
*146 input2
*147 input3
*148 input4
*149 input5
*150 input6
*151 input7
*152 input8
*153 output10
*154 output11
*155 output12
*156 output13
*157 output14
*158 output15
*159 output16
*160 output9

*PORTS
in[0] I
in[1] I
in[2] I
in[3] I
in[4] I
in[5] I
in[6] I
in[7] I
out[0] O
out[1] O
out[2] O
out[3] O
out[4] O
out[5] O
out[6] O
out[7] O

*D_NET *3 0.00108348
*CONN
*P in[0] I
*I *145:A I *D sky130_fd_sc_hd__buf_1
*CAP
1 in[0] 0.000541738
2 *145:A 0.000541738
3 *145:A *146:A 0
*RES
1 in[0] *145:A 24.4979 
*END

*D_NET *4 0.00082408
*CONN
*P in[1] I
*I *146:A I *D sky130_fd_sc_hd__buf_1
*CAP
1 in[1] 0.000383467
2 *146:A 0.000383467
3 *146:A *147:A 0
4 *146:A *19:12 5.71472e-05
5 *145:A *146:A 0
*RES
1 in[1] *146:A 22.141 
*END

*D_NET *5 0.000572832
*CONN
*P in[2] I
*I *147:A I *D sky130_fd_sc_hd__clkbuf_1
*CAP
1 in[2] 0.000286416
2 *147:A 0.000286416
3 *147:A *148:A 0
4 *146:A *147:A 0
*RES
1 in[2] *147:A 20.4803 
*END

*D_NET *6 0.000694675
*CONN
*P in[3] I
*I *148:A I *D sky130_fd_sc_hd__clkbuf_1
*CAP
1 in[3] 0.000347337
2 *148:A 0.000347337
3 *148:A *138:A 0
4 *148:A *149:A 0
5 *148:A *19:12 0
6 *147:A *148:A 0
*RES
1 in[3] *148:A 21.6946 
*END

*D_NET *7 0.000605554
*CONN
*P in[4] I
*I *149:A I *D sky130_fd_sc_hd__clkbuf_1
*CAP
1 in[4] 0.000302777
2 *149:A 0.000302777
3 *149:A *150:A 0
4 *149:A *19:12 0
5 *148:A *149:A 0
*RES
1 in[4] *149:A 20.7838 
*END

*D_NET *8 0.000715317
*CONN
*P in[5] I
*I *150:A I *D sky130_fd_sc_hd__clkbuf_1
*CAP
1 in[5] 0.000357659
2 *150:A 0.000357659
3 *150:A *151:A 0
4 *150:A *19:12 0
5 *149:A *150:A 0
*RES
1 in[5] *150:A 21.9981 
*END

*D_NET *9 0.000563768
*CONN
*P in[6] I
*I *151:A I *D sky130_fd_sc_hd__clkbuf_1
*CAP
1 in[6] 0.000281884
2 *151:A 0.000281884
3 *151:A *152:A 0
4 *150:A *151:A 0
*RES
1 in[6] *151:A 20.4803 
*END

*D_NET *10 0.00123738
*CONN
*P in[7] I
*I *152:A I *D sky130_fd_sc_hd__buf_1
*CAP
1 in[7] 0.000613565
2 *152:A 0.000613565
3 *152:A *19:12 1.02504e-05
4 *151:A *152:A 0
*RES
1 in[7] *152:A 25.0176 
*END

*D_NET *11 0.00116601
*CONN
*P out[0] O
*I *160:X O *D sky130_fd_sc_hd__buf_2
*CAP
1 out[0] 0.000583005
2 *160:X 0.000583005
3 out[0] out[1] 0
*RES
1 *160:X out[0] 23.8754 
*END

*D_NET *12 0.000438356
*CONN
*P out[1] O
*I *153:X O *D sky130_fd_sc_hd__buf_2
*CAP
1 out[1] 0.000219178
2 *153:X 0.000219178
3 out[1] out[2] 0
4 out[0] out[1] 0
*RES
1 *153:X out[1] 18.1229 
*END

*D_NET *13 0.000440675
*CONN
*P out[2] O
*I *154:X O *D sky130_fd_sc_hd__buf_2
*CAP
1 out[2] 0.00021424
2 *154:X 0.00021424
3 out[2] out[3] 0
4 out[2] *154:A 1.21955e-05
5 out[1] out[2] 0
*RES
1 *154:X out[2] 18.1229 
*END

*D_NET *14 0.000598041
*CONN
*P out[3] O
*I *155:X O *D sky130_fd_sc_hd__buf_2
*CAP
1 out[3] 0.000267648
2 *155:X 0.000267648
3 out[3] out[4] 0
4 out[3] *155:A 6.27457e-05
5 out[2] out[3] 0
*RES
1 *155:X out[3] 19.3371 
*END

*D_NET *15 0.000437128
*CONN
*P out[4] O
*I *156:X O *D sky130_fd_sc_hd__buf_2
*CAP
1 out[4] 0.000218564
2 *156:X 0.000218564
3 out[4] out[5] 0
4 out[4] *159:A 0
5 out[3] out[4] 0
*RES
1 *156:X out[4] 18.1229 
*END

*D_NET *16 0.000581652
*CONN
*P out[5] O
*I *157:X O *D sky130_fd_sc_hd__buf_2
*CAP
1 out[5] 0.000290826
2 *157:X 0.000290826
3 out[5] out[6] 0
4 out[5] *159:A 0
5 out[4] out[5] 0
*RES
1 *157:X out[5] 19.3371 
*END

*D_NET *17 0.000787509
*CONN
*P out[6] O
*I *158:X O *D sky130_fd_sc_hd__buf_2
*CAP
1 out[6] 0.000393755
2 *158:X 0.000393755
3 out[6] out[7] 0
4 out[5] out[6] 0
*RES
1 *158:X out[6] 18.5553 
*END

*D_NET *18 0.00103775
*CONN
*P out[7] O
*I *159:X O *D sky130_fd_sc_hd__clkbuf_4
*CAP
1 out[7] 0.000518877
2 *159:X 0.000518877
3 out[6] out[7] 0
*RES
1 *159:X out[7] 24.4258 
*END

*D_NET *19 0.00511149
*CONN
*I *143:A I *D sky130_fd_sc_hd__inv_2
*I *145:X O *D sky130_fd_sc_hd__buf_1
*CAP
1 *143:A 0.000136592
2 *145:X 0.00117994
3 *19:12 0.00131653
4 *143:A *141:A 1.34631e-05
5 *143:A *33:14 0.000317634
6 *19:12 *138:A 0.000187902
7 *19:12 *141:A 0
8 *19:12 *27:12 0.00189203
9 *146:A *19:12 5.71472e-05
10 *148:A *19:12 0
11 *149:A *19:12 0
12 *150:A *19:12 0
13 *152:A *19:12 1.02504e-05
*RES
1 *145:X *19:12 47.9071 
2 *19:12 *143:A 12.7107 
*END

*D_NET *20 0.00470422
*CONN
*I *153:A I *D sky130_fd_sc_hd__buf_2
*I *144:Y O *D sky130_fd_sc_hd__inv_2
*CAP
1 *153:A 0.000336689
2 *144:Y 0.00201542
3 *20:12 0.00235211
4 *20:12 *160:A 0
*RES
1 *144:Y *20:12 49.8357 
2 *20:12 *153:A 14.3714 
*END

*D_NET *21 0.000706634
*CONN
*I *154:A I *D sky130_fd_sc_hd__buf_2
*I *137:Y O *D sky130_fd_sc_hd__inv_2
*CAP
1 *154:A 0.000273502
2 *137:Y 0.000273502
3 *154:A *137:A 7.07908e-05
4 *154:A *156:A 7.6644e-05
5 *154:A *160:A 0
6 out[2] *154:A 1.21955e-05
*RES
1 *137:Y *154:A 32.6179 
*END

*D_NET *22 0.00276158
*CONN
*I *155:A I *D sky130_fd_sc_hd__buf_2
*I *138:Y O *D sky130_fd_sc_hd__inv_2
*CAP
1 *155:A 0.00118819
2 *138:Y 0.00118819
3 *155:A *156:A 0.000322453
4 out[3] *155:A 6.27457e-05
*RES
1 *138:Y *155:A 43.2964 
*END

*D_NET *23 0.00311646
*CONN
*I *156:A I *D sky130_fd_sc_hd__buf_2
*I *139:Y O *D sky130_fd_sc_hd__inv_2
*CAP
1 *156:A 0.00110597
2 *139:Y 0.00110597
3 *156:A *137:A 8.15843e-05
4 *156:A *159:A 0.000321738
5 *156:A *160:A 5.97931e-05
6 *156:A *33:14 4.23086e-05
7 *154:A *156:A 7.6644e-05
8 *155:A *156:A 0.000322453
*RES
1 *139:Y *156:A 46.225 
*END

*D_NET *24 0.00191732
*CONN
*I *157:A I *D sky130_fd_sc_hd__buf_2
*I *140:Y O *D sky130_fd_sc_hd__inv_2
*CAP
1 *157:A 0.000924919
2 *140:Y 0.000924919
3 *157:A *159:A 6.74815e-05
*RES
1 *140:Y *157:A 38.8143 
*END

*D_NET *25 0.00169837
*CONN
*I *158:A I *D sky130_fd_sc_hd__buf_2
*I *141:Y O *D sky130_fd_sc_hd__inv_2
*CAP
1 *158:A 0.00082021
2 *141:Y 0.00082021
3 *158:A *159:A 0
4 *158:A *160:A 5.10822e-05
5 *158:A *33:14 6.8646e-06
*RES
1 *141:Y *158:A 37.8857 
*END

*D_NET *26 0.00277644
*CONN
*I *159:A I *D sky130_fd_sc_hd__clkbuf_4
*I *142:Y O *D sky130_fd_sc_hd__inv_2
*CAP
1 *159:A 0.000549063
2 *142:Y 0.000549063
3 *159:A *33:14 0.0012891
4 out[4] *159:A 0
5 out[5] *159:A 0
6 *156:A *159:A 0.000321738
7 *157:A *159:A 6.74815e-05
8 *158:A *159:A 0
*RES
1 *142:Y *159:A 44.6536 
*END

*D_NET *27 0.00390087
*CONN
*I *144:A I *D sky130_fd_sc_hd__inv_2
*I *146:X O *D sky130_fd_sc_hd__buf_1
*CAP
1 *144:A 0
2 *146:X 0.00100442
3 *27:12 0.00100442
4 *19:12 *27:12 0.00189203
*RES
1 *146:X *27:12 43.8714 
2 *27:12 *144:A 9.3 
*END

*D_NET *28 0.00335575
*CONN
*I *137:A I *D sky130_fd_sc_hd__inv_2
*I *147:X O *D sky130_fd_sc_hd__clkbuf_1
*CAP
1 *137:A 0.00142923
2 *147:X 0.00142923
3 *137:A *160:A 0.00034491
4 *154:A *137:A 7.07908e-05
5 *156:A *137:A 8.15843e-05
*RES
1 *147:X *137:A 46.8857 
*END

*D_NET *29 0.00107754
*CONN
*I *138:A I *D sky130_fd_sc_hd__inv_2
*I *148:X O *D sky130_fd_sc_hd__clkbuf_1
*CAP
1 *138:A 0.000444819
2 *148:X 0.000444819
3 *148:A *138:A 0
4 *19:12 *138:A 0.000187902
*RES
1 *148:X *138:A 36.2071 
*END

*D_NET *30 0.00217873
*CONN
*I *139:A I *D sky130_fd_sc_hd__inv_2
*I *149:X O *D sky130_fd_sc_hd__clkbuf_1
*CAP
1 *139:A 0.00108936
2 *149:X 0.00108936
*RES
1 *149:X *139:A 43.1179 
*END

*D_NET *31 0.00119635
*CONN
*I *140:A I *D sky130_fd_sc_hd__inv_2
*I *150:X O *D sky130_fd_sc_hd__clkbuf_1
*CAP
1 *140:A 0.000598177
2 *150:X 0.000598177
*RES
1 *150:X *140:A 36.7429 
*END

*D_NET *32 0.00124129
*CONN
*I *141:A I *D sky130_fd_sc_hd__inv_2
*I *151:X O *D sky130_fd_sc_hd__clkbuf_1
*CAP
1 *141:A 0.000490191
2 *151:X 0.000490191
3 *141:A *33:14 0.000190851
4 *141:A *34:8 5.65955e-05
5 *143:A *141:A 1.34631e-05
6 *19:12 *141:A 0
*RES
1 *151:X *141:A 34.6 
*END

*D_NET *33 0.00581724
*CONN
*I *142:A I *D sky130_fd_sc_hd__inv_2
*I *152:X O *D sky130_fd_sc_hd__buf_1
*CAP
1 *142:A 0
2 *152:X 0.000785622
3 *33:14 0.000785622
4 *33:14 *160:A 0.00133889
5 *33:14 *34:8 0.00106036
6 *141:A *33:14 0.000190851
7 *143:A *33:14 0.000317634
8 *156:A *33:14 4.23086e-05
9 *158:A *33:14 6.8646e-06
10 *159:A *33:14 0.0012891
*RES
1 *152:X *33:14 49.5321 
2 *33:14 *142:A 9.3 
*END

*D_NET *34 0.00609685
*CONN
*I *160:A I *D sky130_fd_sc_hd__buf_2
*I *143:Y O *D sky130_fd_sc_hd__inv_2
*CAP
1 *160:A 0.00115769
2 *143:Y 0.000434921
3 *34:8 0.00159261
4 *137:A *160:A 0.00034491
5 *141:A *34:8 5.65955e-05
6 *154:A *160:A 0
7 *156:A *160:A 5.97931e-05
8 *158:A *160:A 5.10822e-05
9 *20:12 *160:A 0
10 *33:14 *160:A 0.00133889
11 *33:14 *34:8 0.00106036
*RES
1 *143:Y *34:8 23.7821 
2 *34:8 *160:A 42.4607 
*END
