*SPEF "ieee 1481-1999"
*DESIGN "ZeroToFiveCounter"
*DATE "08:10:44 Sunday May 25, 2025"
*VENDOR "The OpenROAD Project"
*PROGRAM "OpenROAD"
*VERSION "b16bda7e82721d10566ff7e2b68f1ff0be9f9e38"
*DESIGN_FLOW "NAME_SCOPE LOCAL" "PIN_CAP NONE"
*DIVIDER /
*DELIMITER :
*BUS_DELIMITER []
*T_UNIT 1 NS
*C_UNIT 1 PF
*R_UNIT 1 OHM
*L_UNIT 1 HENRY

*NAME_MAP
*1 net8
*2 net9
*3 net10
*4 net11
*5 BTNC
*6 CLK100MHZ
*9 seg[0]
*10 seg[1]
*11 seg[2]
*12 seg[3]
*13 seg[4]
*14 seg[5]
*15 seg[6]
*16 _000_
*17 _001_
*18 _002_
*19 _003_
*20 _004_
*21 _005_
*22 _006_
*23 _007_
*24 _008_
*25 _009_
*26 _010_
*27 _011_
*28 _012_
*29 _013_
*30 _014_
*31 _015_
*32 _016_
*33 _017_
*34 _018_
*35 _019_
*36 _020_
*37 _021_
*38 _022_
*39 _023_
*40 _024_
*41 _025_
*42 _026_
*43 _027_
*44 _028_
*45 _029_
*46 _030_
*47 _031_
*48 _032_
*49 _033_
*50 _034_
*51 _035_
*52 _036_
*53 _037_
*54 _038_
*55 _039_
*56 _040_
*57 _041_
*58 _042_
*59 _043_
*60 _044_
*61 _045_
*62 _046_
*63 _047_
*64 _048_
*65 _049_
*66 _050_
*67 _051_
*68 _052_
*69 _053_
*70 _054_
*71 _055_
*72 _056_
*73 _057_
*74 _058_
*75 _059_
*76 _060_
*77 _061_
*78 _062_
*79 _063_
*80 _064_
*81 _065_
*82 _066_
*83 _067_
*84 _068_
*85 _069_
*86 _070_
*87 _071_
*88 _072_
*89 _073_
*90 _074_
*91 _075_
*92 _076_
*93 _077_
*94 _078_
*95 _079_
*96 _080_
*97 _081_
*98 _082_
*99 _083_
*100 _084_
*101 _085_
*102 _086_
*103 _087_
*104 _088_
*105 _089_
*106 _090_
*107 _091_
*108 _092_
*109 _093_
*110 _094_
*111 _095_
*112 _096_
*113 _097_
*114 _098_
*115 _099_
*116 _100_
*117 _101_
*118 _102_
*119 _103_
*120 _104_
*121 _105_
*122 _106_
*123 _107_
*124 _108_
*125 _109_
*126 _110_
*127 _111_
*128 _112_
*129 _113_
*130 _114_
*131 _115_
*132 _116_
*133 _117_
*134 _118_
*135 _119_
*136 clknet_0_CLK100MHZ
*137 clknet_2_0__leaf_CLK100MHZ
*138 clknet_2_1__leaf_CLK100MHZ
*139 clknet_2_2__leaf_CLK100MHZ
*140 clknet_2_3__leaf_CLK100MHZ
*141 decoder\.count\[0\]
*142 decoder\.count\[1\]
*143 decoder\.count\[2\]
*144 decoder\.count\[3\]
*145 decoder\.delay\[0\]
*146 decoder\.delay\[10\]
*147 decoder\.delay\[11\]
*148 decoder\.delay\[12\]
*149 decoder\.delay\[13\]
*150 decoder\.delay\[14\]
*151 decoder\.delay\[15\]
*152 decoder\.delay\[16\]
*153 decoder\.delay\[17\]
*154 decoder\.delay\[18\]
*155 decoder\.delay\[19\]
*156 decoder\.delay\[1\]
*157 decoder\.delay\[20\]
*158 decoder\.delay\[21\]
*159 decoder\.delay\[22\]
*160 decoder\.delay\[23\]
*161 decoder\.delay\[24\]
*162 decoder\.delay\[2\]
*163 decoder\.delay\[3\]
*164 decoder\.delay\[4\]
*165 decoder\.delay\[5\]
*166 decoder\.delay\[6\]
*167 decoder\.delay\[7\]
*168 decoder\.delay\[8\]
*169 decoder\.delay\[9\]
*170 net1
*171 net2
*172 net3
*173 net4
*174 net5
*175 net6
*176 net7
*177 FILLER_0_0_10
*178 FILLER_0_0_108
*179 FILLER_0_0_113
*180 FILLER_0_0_117
*181 FILLER_0_0_124
*182 FILLER_0_0_22
*183 FILLER_0_0_29
*184 FILLER_0_0_3
*185 FILLER_0_0_41
*186 FILLER_0_0_48
*187 FILLER_0_0_57
*188 FILLER_0_0_69
*189 FILLER_0_0_74
*190 FILLER_0_0_82
*191 FILLER_0_0_88
*192 FILLER_0_0_96
*193 FILLER_0_10_109
*194 FILLER_0_10_121
*195 FILLER_0_10_26
*196 FILLER_0_10_29
*197 FILLER_0_10_3
*198 FILLER_0_10_41
*199 FILLER_0_10_53
*200 FILLER_0_10_65
*201 FILLER_0_10_77
*202 FILLER_0_10_83
*203 FILLER_0_10_85
*204 FILLER_0_10_97
*205 FILLER_0_11_102
*206 FILLER_0_11_108
*207 FILLER_0_11_113
*208 FILLER_0_11_15
*209 FILLER_0_11_24
*210 FILLER_0_11_3
*211 FILLER_0_11_36
*212 FILLER_0_11_48
*213 FILLER_0_11_57
*214 FILLER_0_11_69
*215 FILLER_0_11_81
*216 FILLER_0_11_93
*217 FILLER_0_12_15
*218 FILLER_0_12_3
*219 FILLER_0_12_49
*220 FILLER_0_12_61
*221 FILLER_0_12_73
*222 FILLER_0_12_81
*223 FILLER_0_12_85
*224 FILLER_0_13_10
*225 FILLER_0_13_105
*226 FILLER_0_13_111
*227 FILLER_0_13_113
*228 FILLER_0_13_22
*229 FILLER_0_13_3
*230 FILLER_0_13_34
*231 FILLER_0_13_46
*232 FILLER_0_13_54
*233 FILLER_0_13_57
*234 FILLER_0_13_69
*235 FILLER_0_13_73
*236 FILLER_0_13_81
*237 FILLER_0_13_93
*238 FILLER_0_14_111
*239 FILLER_0_14_123
*240 FILLER_0_14_15
*241 FILLER_0_14_19
*242 FILLER_0_14_25
*243 FILLER_0_14_29
*244 FILLER_0_14_3
*245 FILLER_0_14_41
*246 FILLER_0_14_53
*247 FILLER_0_14_65
*248 FILLER_0_14_80
*249 FILLER_0_14_85
*250 FILLER_0_14_97
*251 FILLER_0_15_109
*252 FILLER_0_15_118
*253 FILLER_0_15_15
*254 FILLER_0_15_3
*255 FILLER_0_15_37
*256 FILLER_0_15_49
*257 FILLER_0_15_55
*258 FILLER_0_15_85
*259 FILLER_0_15_97
*260 FILLER_0_16_123
*261 FILLER_0_16_15
*262 FILLER_0_16_27
*263 FILLER_0_16_29
*264 FILLER_0_16_3
*265 FILLER_0_16_33
*266 FILLER_0_16_41
*267 FILLER_0_16_46
*268 FILLER_0_16_58
*269 FILLER_0_16_93
*270 FILLER_0_16_99
*271 FILLER_0_17_119
*272 FILLER_0_17_13
*273 FILLER_0_17_25
*274 FILLER_0_17_3
*275 FILLER_0_17_37
*276 FILLER_0_17_49
*277 FILLER_0_17_55
*278 FILLER_0_17_57
*279 FILLER_0_17_65
*280 FILLER_0_17_7
*281 FILLER_0_17_71
*282 FILLER_0_17_93
*283 FILLER_0_18_109
*284 FILLER_0_18_117
*285 FILLER_0_18_15
*286 FILLER_0_18_27
*287 FILLER_0_18_29
*288 FILLER_0_18_3
*289 FILLER_0_18_41
*290 FILLER_0_18_49
*291 FILLER_0_18_54
*292 FILLER_0_18_66
*293 FILLER_0_18_78
*294 FILLER_0_18_85
*295 FILLER_0_18_97
*296 FILLER_0_19_105
*297 FILLER_0_19_111
*298 FILLER_0_19_118
*299 FILLER_0_19_124
*300 FILLER_0_19_15
*301 FILLER_0_19_27
*302 FILLER_0_19_3
*303 FILLER_0_19_35
*304 FILLER_0_19_47
*305 FILLER_0_19_55
*306 FILLER_0_19_57
*307 FILLER_0_19_69
*308 FILLER_0_19_75
*309 FILLER_0_19_80
*310 FILLER_0_19_88
*311 FILLER_0_19_93
*312 FILLER_0_1_111
*313 FILLER_0_1_113
*314 FILLER_0_1_119
*315 FILLER_0_1_123
*316 FILLER_0_1_15
*317 FILLER_0_1_23
*318 FILLER_0_1_27
*319 FILLER_0_1_3
*320 FILLER_0_1_57
*321 FILLER_0_1_69
*322 FILLER_0_1_83
*323 FILLER_0_1_91
*324 FILLER_0_1_96
*325 FILLER_0_20_106
*326 FILLER_0_20_118
*327 FILLER_0_20_124
*328 FILLER_0_20_27
*329 FILLER_0_20_3
*330 FILLER_0_20_32
*331 FILLER_0_20_41
*332 FILLER_0_20_49
*333 FILLER_0_20_58
*334 FILLER_0_20_70
*335 FILLER_0_20_78
*336 FILLER_0_21_109
*337 FILLER_0_21_11
*338 FILLER_0_21_113
*339 FILLER_0_21_121
*340 FILLER_0_21_23
*341 FILLER_0_21_3
*342 FILLER_0_21_38
*343 FILLER_0_21_50
*344 FILLER_0_21_60
*345 FILLER_0_21_72
*346 FILLER_0_21_97
*347 FILLER_0_22_100
*348 FILLER_0_22_11
*349 FILLER_0_22_20
*350 FILLER_0_22_29
*351 FILLER_0_22_3
*352 FILLER_0_22_41
*353 FILLER_0_22_53
*354 FILLER_0_22_59
*355 FILLER_0_23_11
*356 FILLER_0_23_113
*357 FILLER_0_23_17
*358 FILLER_0_23_24
*359 FILLER_0_23_3
*360 FILLER_0_23_36
*361 FILLER_0_23_48
*362 FILLER_0_23_57
*363 FILLER_0_23_83
*364 FILLER_0_24_112
*365 FILLER_0_24_116
*366 FILLER_0_24_15
*367 FILLER_0_24_27
*368 FILLER_0_24_29
*369 FILLER_0_24_3
*370 FILLER_0_24_40
*371 FILLER_0_24_48
*372 FILLER_0_24_56
*373 FILLER_0_24_68
*374 FILLER_0_24_80
*375 FILLER_0_24_91
*376 FILLER_0_25_10
*377 FILLER_0_25_106
*378 FILLER_0_25_113
*379 FILLER_0_25_22
*380 FILLER_0_25_3
*381 FILLER_0_25_34
*382 FILLER_0_25_40
*383 FILLER_0_25_46
*384 FILLER_0_25_50
*385 FILLER_0_25_54
*386 FILLER_0_25_57
*387 FILLER_0_26_116
*388 FILLER_0_26_124
*389 FILLER_0_26_19
*390 FILLER_0_26_27
*391 FILLER_0_26_29
*392 FILLER_0_26_3
*393 FILLER_0_26_33
*394 FILLER_0_26_39
*395 FILLER_0_26_53
*396 FILLER_0_26_61
*397 FILLER_0_26_7
*398 FILLER_0_26_72
*399 FILLER_0_26_85
*400 FILLER_0_26_92
*401 FILLER_0_27_10
*402 FILLER_0_27_104
*403 FILLER_0_27_113
*404 FILLER_0_27_121
*405 FILLER_0_27_22
*406 FILLER_0_27_28
*407 FILLER_0_27_55
*408 FILLER_0_27_57
*409 FILLER_0_27_69
*410 FILLER_0_27_75
*411 FILLER_0_27_83
*412 FILLER_0_27_95
*413 FILLER_0_28_109
*414 FILLER_0_28_121
*415 FILLER_0_28_15
*416 FILLER_0_28_21
*417 FILLER_0_28_25
*418 FILLER_0_28_29
*419 FILLER_0_28_3
*420 FILLER_0_28_37
*421 FILLER_0_28_49
*422 FILLER_0_28_55
*423 FILLER_0_28_59
*424 FILLER_0_28_63
*425 FILLER_0_28_67
*426 FILLER_0_28_79
*427 FILLER_0_28_83
*428 FILLER_0_28_85
*429 FILLER_0_28_97
*430 FILLER_0_29_104
*431 FILLER_0_29_113
*432 FILLER_0_29_118
*433 FILLER_0_29_124
*434 FILLER_0_29_15
*435 FILLER_0_29_27
*436 FILLER_0_29_3
*437 FILLER_0_29_39
*438 FILLER_0_29_51
*439 FILLER_0_29_55
*440 FILLER_0_29_57
*441 FILLER_0_29_63
*442 FILLER_0_29_91
*443 FILLER_0_29_99
*444 FILLER_0_2_100
*445 FILLER_0_2_111
*446 FILLER_0_2_115
*447 FILLER_0_2_120
*448 FILLER_0_2_124
*449 FILLER_0_2_15
*450 FILLER_0_2_27
*451 FILLER_0_2_3
*452 FILLER_0_2_77
*453 FILLER_0_2_83
*454 FILLER_0_2_92
*455 FILLER_0_30_105
*456 FILLER_0_30_122
*457 FILLER_0_30_15
*458 FILLER_0_30_27
*459 FILLER_0_30_29
*460 FILLER_0_30_3
*461 FILLER_0_30_41
*462 FILLER_0_30_53
*463 FILLER_0_30_65
*464 FILLER_0_30_77
*465 FILLER_0_30_83
*466 FILLER_0_30_85
*467 FILLER_0_30_97
*468 FILLER_0_31_105
*469 FILLER_0_31_113
*470 FILLER_0_31_117
*471 FILLER_0_31_15
*472 FILLER_0_31_27
*473 FILLER_0_31_3
*474 FILLER_0_31_39
*475 FILLER_0_31_51
*476 FILLER_0_31_55
*477 FILLER_0_31_57
*478 FILLER_0_31_69
*479 FILLER_0_31_81
*480 FILLER_0_31_85
*481 FILLER_0_31_97
*482 FILLER_0_3_113
*483 FILLER_0_3_15
*484 FILLER_0_3_23
*485 FILLER_0_3_28
*486 FILLER_0_3_3
*487 FILLER_0_3_40
*488 FILLER_0_3_51
*489 FILLER_0_3_55
*490 FILLER_0_3_57
*491 FILLER_0_3_61
*492 FILLER_0_3_73
*493 FILLER_0_4_104
*494 FILLER_0_4_116
*495 FILLER_0_4_124
*496 FILLER_0_4_15
*497 FILLER_0_4_27
*498 FILLER_0_4_29
*499 FILLER_0_4_3
*500 FILLER_0_4_7
*501 FILLER_0_4_85
*502 FILLER_0_4_97
*503 FILLER_0_5_10
*504 FILLER_0_5_110
*505 FILLER_0_5_113
*506 FILLER_0_5_121
*507 FILLER_0_5_22
*508 FILLER_0_5_30
*509 FILLER_0_5_57
*510 FILLER_0_5_65
*511 FILLER_0_5_90
*512 FILLER_0_5_94
*513 FILLER_0_5_98
*514 FILLER_0_6_101
*515 FILLER_0_6_112
*516 FILLER_0_6_124
*517 FILLER_0_6_15
*518 FILLER_0_6_19
*519 FILLER_0_6_27
*520 FILLER_0_6_29
*521 FILLER_0_6_3
*522 FILLER_0_6_37
*523 FILLER_0_6_46
*524 FILLER_0_6_58
*525 FILLER_0_6_62
*526 FILLER_0_6_85
*527 FILLER_0_6_97
*528 FILLER_0_7_103
*529 FILLER_0_7_111
*530 FILLER_0_7_113
*531 FILLER_0_7_12
*532 FILLER_0_7_124
*533 FILLER_0_7_23
*534 FILLER_0_7_3
*535 FILLER_0_7_30
*536 FILLER_0_7_39
*537 FILLER_0_7_51
*538 FILLER_0_7_55
*539 FILLER_0_7_57
*540 FILLER_0_7_99
*541 FILLER_0_8_123
*542 FILLER_0_8_15
*543 FILLER_0_8_27
*544 FILLER_0_8_29
*545 FILLER_0_8_3
*546 FILLER_0_8_62
*547 FILLER_0_8_74
*548 FILLER_0_8_82
*549 FILLER_0_8_85
*550 FILLER_0_9_100
*551 FILLER_0_9_118
*552 FILLER_0_9_15
*553 FILLER_0_9_23
*554 FILLER_0_9_3
*555 FILLER_0_9_31
*556 FILLER_0_9_43
*557 FILLER_0_9_49
*558 FILLER_0_9_77
*559 PHY_EDGE_ROW_0_Left_32
*560 PHY_EDGE_ROW_0_Right_0
*561 PHY_EDGE_ROW_10_Left_42
*562 PHY_EDGE_ROW_10_Right_10
*563 PHY_EDGE_ROW_11_Left_43
*564 PHY_EDGE_ROW_11_Right_11
*565 PHY_EDGE_ROW_12_Left_44
*566 PHY_EDGE_ROW_12_Right_12
*567 PHY_EDGE_ROW_13_Left_45
*568 PHY_EDGE_ROW_13_Right_13
*569 PHY_EDGE_ROW_14_Left_46
*570 PHY_EDGE_ROW_14_Right_14
*571 PHY_EDGE_ROW_15_Left_47
*572 PHY_EDGE_ROW_15_Right_15
*573 PHY_EDGE_ROW_16_Left_48
*574 PHY_EDGE_ROW_16_Right_16
*575 PHY_EDGE_ROW_17_Left_49
*576 PHY_EDGE_ROW_17_Right_17
*577 PHY_EDGE_ROW_18_Left_50
*578 PHY_EDGE_ROW_18_Right_18
*579 PHY_EDGE_ROW_19_Left_51
*580 PHY_EDGE_ROW_19_Right_19
*581 PHY_EDGE_ROW_1_Left_33
*582 PHY_EDGE_ROW_1_Right_1
*583 PHY_EDGE_ROW_20_Left_52
*584 PHY_EDGE_ROW_20_Right_20
*585 PHY_EDGE_ROW_21_Left_53
*586 PHY_EDGE_ROW_21_Right_21
*587 PHY_EDGE_ROW_22_Left_54
*588 PHY_EDGE_ROW_22_Right_22
*589 PHY_EDGE_ROW_23_Left_55
*590 PHY_EDGE_ROW_23_Right_23
*591 PHY_EDGE_ROW_24_Left_56
*592 PHY_EDGE_ROW_24_Right_24
*593 PHY_EDGE_ROW_25_Left_57
*594 PHY_EDGE_ROW_25_Right_25
*595 PHY_EDGE_ROW_26_Left_58
*596 PHY_EDGE_ROW_26_Right_26
*597 PHY_EDGE_ROW_27_Left_59
*598 PHY_EDGE_ROW_27_Right_27
*599 PHY_EDGE_ROW_28_Left_60
*600 PHY_EDGE_ROW_28_Right_28
*601 PHY_EDGE_ROW_29_Left_61
*602 PHY_EDGE_ROW_29_Right_29
*603 PHY_EDGE_ROW_2_Left_34
*604 PHY_EDGE_ROW_2_Right_2
*605 PHY_EDGE_ROW_30_Left_62
*606 PHY_EDGE_ROW_30_Right_30
*607 PHY_EDGE_ROW_31_Left_63
*608 PHY_EDGE_ROW_31_Right_31
*609 PHY_EDGE_ROW_3_Left_35
*610 PHY_EDGE_ROW_3_Right_3
*611 PHY_EDGE_ROW_4_Left_36
*612 PHY_EDGE_ROW_4_Right_4
*613 PHY_EDGE_ROW_5_Left_37
*614 PHY_EDGE_ROW_5_Right_5
*615 PHY_EDGE_ROW_6_Left_38
*616 PHY_EDGE_ROW_6_Right_6
*617 PHY_EDGE_ROW_7_Left_39
*618 PHY_EDGE_ROW_7_Right_7
*619 PHY_EDGE_ROW_8_Left_40
*620 PHY_EDGE_ROW_8_Right_8
*621 PHY_EDGE_ROW_9_Left_41
*622 PHY_EDGE_ROW_9_Right_9
*623 TAP_TAPCELL_ROW_0_64
*624 TAP_TAPCELL_ROW_0_65
*625 TAP_TAPCELL_ROW_0_66
*626 TAP_TAPCELL_ROW_0_67
*627 TAP_TAPCELL_ROW_10_86
*628 TAP_TAPCELL_ROW_10_87
*629 TAP_TAPCELL_ROW_11_88
*630 TAP_TAPCELL_ROW_11_89
*631 TAP_TAPCELL_ROW_12_90
*632 TAP_TAPCELL_ROW_12_91
*633 TAP_TAPCELL_ROW_13_92
*634 TAP_TAPCELL_ROW_13_93
*635 TAP_TAPCELL_ROW_14_94
*636 TAP_TAPCELL_ROW_14_95
*637 TAP_TAPCELL_ROW_15_96
*638 TAP_TAPCELL_ROW_15_97
*639 TAP_TAPCELL_ROW_16_98
*640 TAP_TAPCELL_ROW_16_99
*641 TAP_TAPCELL_ROW_17_100
*642 TAP_TAPCELL_ROW_17_101
*643 TAP_TAPCELL_ROW_18_102
*644 TAP_TAPCELL_ROW_18_103
*645 TAP_TAPCELL_ROW_19_104
*646 TAP_TAPCELL_ROW_19_105
*647 TAP_TAPCELL_ROW_1_68
*648 TAP_TAPCELL_ROW_1_69
*649 TAP_TAPCELL_ROW_20_106
*650 TAP_TAPCELL_ROW_20_107
*651 TAP_TAPCELL_ROW_21_108
*652 TAP_TAPCELL_ROW_21_109
*653 TAP_TAPCELL_ROW_22_110
*654 TAP_TAPCELL_ROW_22_111
*655 TAP_TAPCELL_ROW_23_112
*656 TAP_TAPCELL_ROW_23_113
*657 TAP_TAPCELL_ROW_24_114
*658 TAP_TAPCELL_ROW_24_115
*659 TAP_TAPCELL_ROW_25_116
*660 TAP_TAPCELL_ROW_25_117
*661 TAP_TAPCELL_ROW_26_118
*662 TAP_TAPCELL_ROW_26_119
*663 TAP_TAPCELL_ROW_27_120
*664 TAP_TAPCELL_ROW_27_121
*665 TAP_TAPCELL_ROW_28_122
*666 TAP_TAPCELL_ROW_28_123
*667 TAP_TAPCELL_ROW_29_124
*668 TAP_TAPCELL_ROW_29_125
*669 TAP_TAPCELL_ROW_2_70
*670 TAP_TAPCELL_ROW_2_71
*671 TAP_TAPCELL_ROW_30_126
*672 TAP_TAPCELL_ROW_30_127
*673 TAP_TAPCELL_ROW_31_128
*674 TAP_TAPCELL_ROW_31_129
*675 TAP_TAPCELL_ROW_31_130
*676 TAP_TAPCELL_ROW_31_131
*677 TAP_TAPCELL_ROW_3_72
*678 TAP_TAPCELL_ROW_3_73
*679 TAP_TAPCELL_ROW_4_74
*680 TAP_TAPCELL_ROW_4_75
*681 TAP_TAPCELL_ROW_5_76
*682 TAP_TAPCELL_ROW_5_77
*683 TAP_TAPCELL_ROW_6_78
*684 TAP_TAPCELL_ROW_6_79
*685 TAP_TAPCELL_ROW_7_80
*686 TAP_TAPCELL_ROW_7_81
*687 TAP_TAPCELL_ROW_8_82
*688 TAP_TAPCELL_ROW_8_83
*689 TAP_TAPCELL_ROW_9_84
*690 TAP_TAPCELL_ROW_9_85
*691 ZeroToFiveCounter_10
*692 ZeroToFiveCounter_11
*693 ZeroToFiveCounter_8
*694 ZeroToFiveCounter_9
*695 _120_
*696 _121_
*697 _122_
*698 _123_
*699 _124_
*700 _125_
*701 _126_
*702 _127_
*703 _128_
*704 _129_
*705 _130_
*706 _131_
*707 _132_
*708 _133_
*709 _134_
*710 _135_
*711 _136_
*712 _137_
*713 _138_
*714 _139_
*715 _140_
*716 _141_
*717 _142_
*718 _143_
*719 _144_
*720 _145_
*721 _146_
*722 _147_
*723 _148_
*724 _149_
*725 _150_
*726 _151_
*727 _152_
*728 _153_
*729 _154_
*730 _155_
*731 _156_
*732 _157_
*733 _158_
*734 _159_
*735 _160_
*736 _161_
*737 _162_
*738 _163_
*739 _164_
*740 _165_
*741 _166_
*742 _167_
*743 _168_
*744 _169_
*745 _170_
*746 _171_
*747 _172_
*748 _173_
*749 _174_
*750 _175_
*751 _176_
*752 _177_
*753 _178_
*754 _179_
*755 _180_
*756 _181_
*757 _182_
*758 _183_
*759 _184_
*760 _185_
*761 _186_
*762 _187_
*763 _188_
*764 _189_
*765 _190_
*766 _191_
*767 _192_
*768 _193_
*769 _194_
*770 _195_
*771 _196_
*772 _197_
*773 _198_
*774 _199_
*775 _200_
*776 _201_
*777 _202_
*778 _203_
*779 _204_
*780 _205_
*781 _206_
*782 _207_
*783 _208_
*784 _209_
*785 _210_
*786 _211_
*787 _212_
*788 _213_
*789 _214_
*790 _215_
*791 _216_
*792 _217_
*793 _218_
*794 _219_
*795 _220_
*796 _221_
*797 _222_
*798 _223_
*799 _224_
*800 _225_
*801 _226_
*802 _227_
*803 _228_
*804 _229_
*805 _230_
*806 _231_
*807 _232_
*808 _233_
*809 _234_
*810 _235_
*811 _236_
*812 _237_
*813 _238_
*814 _239_
*815 _240_
*816 _241_
*817 _242_
*818 _243_
*819 _244_
*820 _245_
*821 _246_
*822 _247_
*823 _248_
*824 _249_
*825 _250_
*826 _251_
*827 _252_
*828 _253_
*829 _254_
*830 _255_
*831 _256_
*832 _257_
*833 _258_
*834 _259_
*835 _260_
*836 _261_
*837 _262_
*838 _263_
*839 _264_
*840 _265_
*841 _266_
*842 _267_
*843 _268_
*844 _269_
*845 _270_
*846 _271_
*847 _272_
*848 _273_
*849 _274_
*850 _279_
*851 clkbuf_0_CLK100MHZ
*852 clkbuf_2_0__f_CLK100MHZ
*853 clkbuf_2_1__f_CLK100MHZ
*854 clkbuf_2_2__f_CLK100MHZ
*855 clkbuf_2_3__f_CLK100MHZ
*856 clkload0
*857 clkload1
*858 clkload2
*859 output1
*860 output2
*861 output3
*862 output4
*863 output5
*864 output6
*865 output7

*PORTS
AN[0] O
AN[1] O
AN[2] O
AN[3] O
BTNC I
CLK100MHZ I
seg[0] O
seg[1] O
seg[2] O
seg[3] O
seg[4] O
seg[5] O
seg[6] O

*D_NET *1 0.000835417
*CONN
*P AN[0] O
*I *693:LO O *D sky130_fd_sc_hd__conb_1
*CAP
1 AN[0] 0.000365549
2 *693:LO 0.000365549
3 AN[0] seg[6] 0.00010432
*RES
1 *693:LO AN[0] 10.455 
*END

*D_NET *2 0.000901231
*CONN
*P AN[1] O
*I *694:HI O *D sky130_fd_sc_hd__conb_1
*CAP
1 AN[1] 0.000417352
2 *694:HI 0.000417352
3 AN[1] *728:A 1.34594e-05
4 AN[1] *802:A 5.30673e-05
*RES
1 *694:HI AN[1] 10.53 
*END

*D_NET *3 0.000751691
*CONN
*P AN[2] O
*I *691:HI O *D sky130_fd_sc_hd__conb_1
*CAP
1 AN[2] 0.000373164
2 *691:HI 0.000373164
3 AN[2] *43:8 5.36384e-06
*RES
1 *691:HI AN[2] 9.84 
*END

*D_NET *4 0.000751691
*CONN
*P AN[3] O
*I *692:HI O *D sky130_fd_sc_hd__conb_1
*CAP
1 AN[3] 0.000373164
2 *692:HI 0.000373164
3 AN[3] *43:8 5.36384e-06
*RES
1 *692:HI AN[3] 9.84 
*END

*D_NET *5 0.0159032
*CONN
*P BTNC I
*I *801:A I *D sky130_fd_sc_hd__clkbuf_8
*I *789:A I *D sky130_fd_sc_hd__buf_4
*CAP
1 BTNC 0.00263178
2 *801:A 0.000624941
3 *789:A 0.000995375
4 *5:11 0.0042521
5 *789:A *743:B 0.000412267
6 *789:A *746:B1 0.000351556
7 *789:A *825:CLK 0.000361415
8 *789:A *23:16 0.000501154
9 *789:A *117:12 2.51225e-05
10 *789:A *128:36 4.66108e-05
11 *789:A *128:138 8.52883e-05
12 *789:A *135:14 0.00020228
13 *789:A *135:28 8.55576e-05
14 *789:A *140:10 0.000170696
15 *789:A *140:12 0.000175058
16 *789:A *140:14 0.000252677
17 *789:A *140:69 6.87951e-05
18 *789:A *145:26 0.000158789
19 *789:A *169:18 8.69417e-06
20 *789:A *172:22 0.000133806
21 *801:A *723:A 0.000165096
22 *801:A *723:C 0.000187118
23 *801:A *783:B1 0
24 *801:A *824:RESET_B 0
25 *801:A *23:16 0.000178645
26 *801:A *125:20 0
27 *801:A *129:163 0.000269962
28 *801:A *130:6 0.000154708
29 *801:A *140:69 0.000100115
30 *5:11 *784:A 0
31 *5:11 *836:RESET_B 0.000204967
32 *5:11 *61:18 0.00227981
33 *5:11 *91:30 0.000797921
34 *5:11 *147:42 2.08619e-05
*RES
1 BTNC *5:11 7.20067 
2 *5:11 *789:A 22.1926 
3 *5:11 *801:A 17.8275 
*END

*D_NET *6 0.01073
*CONN
*P CLK100MHZ I
*I *851:A I *D sky130_fd_sc_hd__clkbuf_16
*CAP
1 CLK100MHZ 0.00384267
2 *851:A 0.00384267
3 *851:A *724:B2 0
4 *851:A *743:A 0
5 *851:A *754:B 0
6 *851:A *761:A 0.000121019
7 *851:A *785:B 1.58924e-05
8 *851:A *821:RESET_B 0.000110486
9 *851:A *836:RESET_B 1.05233e-05
10 *851:A *845:D 0.00120308
11 *851:A *849:D 0.000323533
12 *851:A *36:26 0.000140112
13 *851:A *72:38 0.000397155
14 *851:A *86:24 0.000270723
15 *851:A *105:14 0
16 *851:A *130:90 0.000137194
17 *851:A *135:44 7.50972e-05
18 *851:A *147:42 0.000138497
19 *851:A *150:40 0.000101356
*RES
1 CLK100MHZ *851:A 22.9662 
*END

*D_NET *9 0.000904086
*CONN
*P seg[0] O
*I *859:X O *D sky130_fd_sc_hd__buf_1
*CAP
1 seg[0] 0.000452043
2 *859:X 0.000452043
3 seg[0] *783:A2 0
*RES
1 *859:X seg[0] 6.60983 
*END

*D_NET *10 0.000621973
*CONN
*P seg[1] O
*I *860:X O *D sky130_fd_sc_hd__buf_1
*CAP
1 seg[1] 0.000300704
2 *860:X 0.000300704
3 seg[1] *104:33 2.05641e-05
*RES
1 *860:X seg[1] 4.84677 
*END

*D_NET *11 0.000674377
*CONN
*P seg[2] O
*I *861:X O *D sky130_fd_sc_hd__buf_1
*CAP
1 seg[2] 0.000316005
2 *861:X 0.000316005
3 seg[2] *47:12 0
4 seg[2] *104:33 4.23658e-05
*RES
1 *861:X seg[2] 5.10177 
*END

*D_NET *12 0.000718888
*CONN
*P seg[3] O
*I *862:X O *D sky130_fd_sc_hd__buf_1
*CAP
1 seg[3] 0.000290244
2 *862:X 0.000290244
3 seg[3] *785:A 0
4 seg[3] *47:12 6.18047e-05
5 seg[3] *104:33 7.65948e-05
*RES
1 *862:X seg[3] 6.89543 
*END

*D_NET *13 0.00116865
*CONN
*P seg[4] O
*I *863:X O *D sky130_fd_sc_hd__buf_1
*CAP
1 seg[4] 0.000480507
2 *863:X 0.000480507
3 seg[4] *795:A 4.66108e-05
4 seg[4] *800:A 0.000123844
5 seg[4] *825:RESET_B 1.03503e-05
6 seg[4] *128:138 7.9642e-06
7 seg[4] *129:112 1.88653e-05
*RES
1 *863:X seg[4] 7.0333 
*END

*D_NET *14 0.000706947
*CONN
*P seg[5] O
*I *864:X O *D sky130_fd_sc_hd__buf_1
*CAP
1 seg[5] 0.000242696
2 *864:X 0.000242696
3 seg[5] *800:A 2.05641e-05
4 seg[5] *827:RESET_B 0.000200991
5 seg[5] *847:RESET_B 0
*RES
1 *864:X seg[5] 4.84677 
*END

*D_NET *15 0.000876176
*CONN
*P seg[6] O
*I *865:X O *D sky130_fd_sc_hd__buf_1
*CAP
1 seg[6] 0.000385928
2 *865:X 0.000385928
3 AN[0] seg[6] 0.00010432
*RES
1 *865:X seg[6] 6.09983 
*END

*D_NET *16 0.00348937
*CONN
*I *825:D I *D sky130_fd_sc_hd__dfrtp_4
*I *740:Y O *D sky130_fd_sc_hd__inv_2
*CAP
1 *825:D 0.00117629
2 *740:Y 0.00117629
3 *825:D *800:A 0.000281163
4 *825:D *827:RESET_B 0
5 *825:D *104:33 0.000209179
6 *825:D *128:138 0.000352141
7 *825:D *145:8 0.000112697
8 *825:D *173:12 0.00018162
*RES
1 *740:Y *825:D 28.875 
*END

*D_NET *17 0.00512534
*CONN
*I *835:D I *D sky130_fd_sc_hd__dfrtp_1
*I *769:Y O *D sky130_fd_sc_hd__a21boi_1
*CAP
1 *835:D 0.00096685
2 *769:Y 0.00096685
3 *835:D *704:A 8.73147e-06
4 *835:D *713:A3 3.79555e-05
5 *835:D *715:B 0.00018298
6 *835:D *717:A2 0.00022406
7 *835:D *722:B1_N 0
8 *835:D *753:A 0.000230855
9 *835:D *781:B 0.000100172
10 *835:D *787:A 2.28259e-05
11 *835:D *826:D 0.00026102
12 *835:D *833:RESET_B 0.000113532
13 *835:D *835:CLK 4.66108e-05
14 *835:D *845:RESET_B 0.000772574
15 *835:D *77:14 0.000649845
16 *835:D *77:20 1.15688e-05
17 *835:D *97:12 0.000114958
18 *835:D *122:14 4.76107e-05
19 *835:D *134:108 0.000281037
20 *835:D *151:14 8.53011e-05
*RES
1 *769:Y *835:D 32.04 
*END

*D_NET *18 0.00275645
*CONN
*I *836:D I *D sky130_fd_sc_hd__dfrtp_2
*I *773:X O *D sky130_fd_sc_hd__clkbuf_1
*CAP
1 *836:D 0.000504561
2 *773:X 0.000504561
3 *836:D *710:B 8.43317e-05
4 *836:D *714:B 0.000554342
5 *836:D *727:B 0.000715844
6 *836:D *828:RESET_B 0.000119756
7 *836:D *836:CLK 5.83121e-06
8 *836:D *846:CLK 0.000104958
9 *836:D *846:D 4.0402e-05
10 *836:D *82:134 8.43357e-05
11 *836:D *110:77 2.91987e-05
12 *836:D *165:39 8.33066e-06
*RES
1 *773:X *836:D 20.685 
*END

*D_NET *19 0.00427295
*CONN
*I *837:D I *D sky130_fd_sc_hd__dfrtp_4
*I *774:Y O *D sky130_fd_sc_hd__xnor2_1
*CAP
1 *837:D 0.000985028
2 *774:Y 0.000985028
3 *837:D *702:B 0.000852359
4 *837:D *714:A 0
5 *837:D *752:C 0
6 *837:D *784:B 3.50033e-05
7 *837:D *828:RESET_B 0.000274019
8 *837:D *837:CLK 7.08554e-05
9 *837:D *837:RESET_B 6.13687e-05
10 *837:D *36:26 0.000765414
11 *837:D *81:29 0
12 *837:D *129:151 0.000121659
13 *837:D *129:163 9.23804e-06
14 *837:D *139:51 0
15 *837:D *139:57 4.22944e-05
16 *837:D *141:53 0
17 *837:D *164:10 7.06865e-05
*RES
1 *774:Y *837:D 29.565 
*END

*D_NET *20 0.0101603
*CONN
*I *838:D I *D sky130_fd_sc_hd__dfrtp_2
*I *777:X O *D sky130_fd_sc_hd__o21ba_1
*CAP
1 *838:D 0.000250133
2 *777:X 0.00194445
3 *20:24 0.00219459
4 *838:D *732:A 0.000636168
5 *838:D *803:A 0.000810048
6 *838:D *838:CLK 6.33103e-05
7 *838:D *149:12 3.22774e-05
8 *20:24 *732:A 4.11718e-05
9 *20:24 *765:A 0.000129951
10 *20:24 *777:B1_N 0.00153616
11 *20:24 *821:RESET_B 7.23213e-05
12 *20:24 *822:RESET_B 0.00109904
13 *20:24 *77:67 6.38913e-05
14 *20:24 *111:24 0.00128675
*RES
1 *777:X *20:24 41.69 
2 *20:24 *838:D 9.985 
*END

*D_NET *21 0.00943885
*CONN
*I *839:D I *D sky130_fd_sc_hd__dfrtp_1
*I *779:X O *D sky130_fd_sc_hd__o2bb2a_1
*CAP
1 *839:D 0.00197005
2 *779:X 0.00197005
3 *839:D *713:B1 0
4 *839:D *718:B1 0.000137691
5 *839:D *724:B2 0.000419233
6 *839:D *743:A 0
7 *839:D *743:B 8.23089e-06
8 *839:D *744:A 0.000109007
9 *839:D *746:A3 4.366e-05
10 *839:D *754:B 0.000129951
11 *839:D *757:C 3.42383e-05
12 *839:D *778:C 0.000124601
13 *839:D *781:B 9.86493e-05
14 *839:D *821:CLK 0.000290239
15 *839:D *839:CLK 0.000446006
16 *839:D *839:RESET_B 5.83121e-06
17 *839:D *849:D 0.000416547
18 *839:D *123:16 0.00133996
19 *839:D *123:18 4.41479e-05
20 *839:D *130:90 7.46578e-05
21 *839:D *134:42 7.42059e-05
22 *839:D *141:14 0.00022786
23 *839:D *151:14 0.00026985
24 *839:D *157:24 0.00119546
25 *839:D *162:12 8.73147e-06
*RES
1 *779:X *839:D 47.9989 
*END

*D_NET *22 0.0014992
*CONN
*I *840:D I *D sky130_fd_sc_hd__dfrtp_1
*I *781:Y O *D sky130_fd_sc_hd__nor2_1
*CAP
1 *840:D 0.000370303
2 *781:Y 0.000370303
3 *840:D *712:A2 1.42674e-05
4 *840:D *719:C 0.00013475
5 *840:D *781:A 0.000487835
6 *840:D *82:66 4.66108e-05
7 *840:D *155:31 7.51327e-05
*RES
1 *781:Y *840:D 14.475 
*END

*D_NET *23 0.00856563
*CONN
*I *841:D I *D sky130_fd_sc_hd__dfrtp_2
*I *782:X O *D sky130_fd_sc_hd__xor2_1
*CAP
1 *841:D 0
2 *782:X 0.00143113
3 *23:16 0.00143113
4 *23:16 *698:D 0.000138483
5 *23:16 *701:C 0.000463742
6 *23:16 *703:B 0.00135657
7 *23:16 *703:C 4.62396e-05
8 *23:16 *723:B 0.000574284
9 *23:16 *723:C 0.000122595
10 *23:16 *731:A 0.000297706
11 *23:16 *771:B 0.000126645
12 *23:16 *773:A 0.000114643
13 *23:16 *825:CLK 0.000115461
14 *23:16 *826:D 0.00062223
15 *23:16 *834:D 2.52349e-05
16 *23:16 *848:CLK 0.000113308
17 *23:16 *75:41 5.12017e-06
18 *23:16 *79:16 7.01104e-05
19 *23:16 *82:134 4.82863e-05
20 *23:16 *91:10 0.000273878
21 *23:16 *125:20 9.90535e-05
22 *23:16 *135:28 0.00027475
23 *23:16 *172:22 0.000135227
24 *789:A *23:16 0.000501154
25 *801:A *23:16 0.000178645
*RES
1 *782:X *23:16 49.79 
2 *23:16 *841:D 1.6 
*END

*D_NET *24 0.00637223
*CONN
*I *842:D I *D sky130_fd_sc_hd__dfrtp_2
*I *785:Y O *D sky130_fd_sc_hd__nor2_1
*CAP
1 *842:D 0.0020484
2 *785:Y 0.0020484
3 *842:D *704:A 3.95409e-05
4 *842:D *717:A2 9.66981e-06
5 *842:D *722:A1 0.000166276
6 *842:D *739:B1_N 1.88656e-05
7 *842:D *750:A 0.000567135
8 *842:D *785:B 1.55253e-05
9 *842:D *809:A 0.000193937
10 *842:D *816:A 2.08471e-05
11 *842:D *841:CLK 7.14623e-05
12 *842:D *841:RESET_B 1.32907e-06
13 *842:D *842:CLK 5.95617e-05
14 *842:D *848:RESET_B 8.92102e-05
15 *842:D *865:A 0.00013566
16 *842:D *142:146 0.000721341
17 *842:D *152:8 1.94175e-05
18 *842:D *161:35 0.000145647
*RES
1 *785:Y *842:D 38.3175 
*END

*D_NET *25 0.00744694
*CONN
*I *843:D I *D sky130_fd_sc_hd__dfrtp_2
*I *786:X O *D sky130_fd_sc_hd__xor2_1
*CAP
1 *843:D 0.00165315
2 *786:X 0.00165315
3 *843:D *695:A 6.16289e-05
4 *843:D *712:A3 0.000160641
5 *843:D *713:B1 0.000617791
6 *843:D *722:B1_N 7.63282e-05
7 *843:D *724:B2 2.05571e-05
8 *843:D *755:B 8.03479e-05
9 *843:D *775:C 8.90036e-05
10 *843:D *786:B 4.77719e-05
11 *843:D *810:A 8.49205e-05
12 *843:D *844:CLK 3.83194e-05
13 *843:D *64:10 0
14 *843:D *82:51 0.00022558
15 *843:D *90:10 0.000271129
16 *843:D *110:85 0.00210727
17 *843:D *137:53 5.13251e-05
18 *843:D *143:26 0.000208027
*RES
1 *786:X *843:D 49.005 
*END

*D_NET *26 0.000519315
*CONN
*I *844:D I *D sky130_fd_sc_hd__dfrtp_1
*I *788:X O *D sky130_fd_sc_hd__o2bb2a_1
*CAP
1 *844:D 0.000169953
2 *788:X 0.000169953
3 *844:D *788:A2_N 9.12494e-06
4 *844:D *844:CLK 5.68531e-05
5 *844:D *844:RESET_B 0.000113431
*RES
1 *788:X *844:D 10.665 
*END

*D_NET *27 0.00748833
*CONN
*I *826:D I *D sky130_fd_sc_hd__dfrtp_1
*I *744:X O *D sky130_fd_sc_hd__clkbuf_1
*CAP
1 *826:D 0.00202748
2 *744:X 0.00202748
3 *826:D *703:B 0.000326678
4 *826:D *731:A 0.00125668
5 *826:D *735:B1 0.000593455
6 *826:D *96:10 4.99619e-05
7 *826:D *97:12 7.48028e-05
8 *826:D *132:26 5.79382e-05
9 *826:D *147:42 0.000190608
10 *835:D *826:D 0.00026102
11 *23:16 *826:D 0.00062223
*RES
1 *744:X *826:D 41.205 
*END

*D_NET *28 0.011708
*CONN
*I *845:D I *D sky130_fd_sc_hd__dfrtp_1
*I *720:Y O *D sky130_fd_sc_hd__nor2_1
*CAP
1 *845:D 0.00263034
2 *720:Y 0.00263034
3 *845:D *703:B 0
4 *845:D *712:A1 0
5 *845:D *712:A2 2.10433e-05
6 *845:D *720:A 1.81715e-05
7 *845:D *720:B 1.13345e-05
8 *845:D *722:B1_N 0.000209651
9 *845:D *724:A1_N 0.000319862
10 *845:D *731:A 5.53549e-06
11 *845:D *736:B 0.000163985
12 *845:D *755:A 0
13 *845:D *759:B1 0.000610626
14 *845:D *777:A1 0.000481354
15 *845:D *823:RESET_B 0
16 *845:D *827:RESET_B 0.000772612
17 *845:D *836:RESET_B 0.000121313
18 *845:D *49:10 0.000107439
19 *845:D *105:14 0.00121734
20 *845:D *128:166 0.000790581
21 *845:D *130:90 8.66835e-05
22 *845:D *134:42 0.00030668
23 *845:D *174:26 0
24 *851:A *845:D 0.00120308
*RES
1 *720:Y *845:D 34.4093 
*END

*D_NET *29 0.010357
*CONN
*I *846:D I *D sky130_fd_sc_hd__dfrtp_1
*I *722:X O *D sky130_fd_sc_hd__o21ba_1
*CAP
1 *846:D 0.00244138
2 *722:X 0.00244138
3 *846:D *698:D 0.00123946
4 *846:D *723:A 0.0012128
5 *846:D *723:C 0.00105452
6 *846:D *726:A2 0.000119183
7 *846:D *739:B1_N 0.000130834
8 *846:D *743:B 0.000408518
9 *846:D *750:B 0.000116216
10 *846:D *785:B 4.89015e-05
11 *846:D *787:A 0.000528552
12 *846:D *803:A 1.84465e-05
13 *846:D *830:RESET_B 4.9378e-05
14 *846:D *838:RESET_B 4.07391e-05
15 *846:D *847:RESET_B 5.27579e-06
16 *846:D *83:22 0.000115252
17 *846:D *125:20 7.84137e-05
18 *846:D *153:43 0.000267367
19 *836:D *846:D 4.0402e-05
*RES
1 *722:X *846:D 20.4022 
*END

*D_NET *30 0.00563446
*CONN
*I *847:D I *D sky130_fd_sc_hd__dfrtp_1
*I *724:X O *D sky130_fd_sc_hd__o2bb2a_1
*CAP
1 *847:D 0.000972376
2 *724:X 0.000972376
3 *847:D *717:A2 4.82919e-05
4 *847:D *717:B1 0.000192125
5 *847:D *722:A2 5.83121e-06
6 *847:D *736:A 0.000198436
7 *847:D *736:B 0.000263595
8 *847:D *788:B1 8.97607e-05
9 *847:D *793:A 6.71349e-05
10 *847:D *821:D 0.000767692
11 *847:D *847:CLK 2.69153e-05
12 *847:D *87:14 1.61831e-05
13 *847:D *128:166 0.000349764
14 *847:D *131:20 0.000178231
15 *847:D *137:12 0.000132909
16 *847:D *137:20 1.8279e-05
17 *847:D *148:79 0
18 *847:D *151:14 0.00037834
19 *847:D *155:31 0.000870485
20 *847:D *166:10 8.57322e-05
*RES
1 *724:X *847:D 34.425 
*END

*D_NET *31 0.0155901
*CONN
*I *848:D I *D sky130_fd_sc_hd__dfrtp_1
*I *728:X O *D sky130_fd_sc_hd__buf_1
*CAP
1 *848:D 0.000641468
2 *728:X 0.000873849
3 *31:10 0.00148879
4 *31:8 0.00172117
5 *848:D *726:B1 0.000138284
6 *848:D *160:6 9.09197e-05
7 *848:D *164:34 0.000412311
8 *31:8 *753:A 0.000547916
9 *31:8 *753:B 0.00042585
10 *31:8 *754:B 0.000121334
11 *31:8 *769:B1_N 1.38407e-05
12 *31:10 *753:B 0.00263971
13 *31:10 *827:RESET_B 1.29415e-05
14 *31:10 *47:12 0.00198742
15 *31:10 *67:10 0.00438681
16 *31:10 *117:12 8.75056e-05
*RES
1 *728:X *31:8 16.125 
2 *31:8 *31:10 52.635 
3 *31:10 *848:D 15.78 
*END

*D_NET *32 0.00492582
*CONN
*I *849:D I *D sky130_fd_sc_hd__dfrtp_4
*I *729:Y O *D sky130_fd_sc_hd__xnor2_1
*CAP
1 *849:D 0.000862772
2 *729:Y 0.000862772