*SPEF "ieee 1481-1999"
*DESIGN "ZeroToFiveCounter"
*DATE "08:10:46 Sunday May 25, 2025"
*VENDOR "The OpenROAD Project"
*PROGRAM "OpenROAD"
*VERSION "b16bda7e82721d10566ff7e2b68f1ff0be9f9e38"
*DESIGN_FLOW "NAME_SCOPE LOCAL" "PIN_CAP NONE"
*DIVIDER /
*DELIMITER :
*BUS_DELIMITER []
*T_UNIT 1 NS
*C_UNIT 1 PF
*R_UNIT 1 OHM
*L_UNIT 1 HENRY

*NAME_MAP
*1 net8
*2 net9
*3 net10
*4 net11
*5 BTNC
*6 CLK100MHZ
*9 seg[0]
*10 seg[1]
*11 seg[2]
*12 seg[3]
*13 seg[4]
*14 seg[5]
*15 seg[6]
*16 _000_
*17 _001_
*18 _002_
*19 _003_
*20 _004_
*21 _005_
*22 _006_
*23 _007_
*24 _008_
*25 _009_
*26 _010_
*27 _011_
*28 _012_
*29 _013_
*30 _014_
*31 _015_
*32 _016_
*33 _017_
*34 _018_
*35 _019_
*36 _020_
*37 _021_
*38 _022_
*39 _023_
*40 _024_
*41 _025_
*42 _026_
*43 _027_
*44 _028_
*45 _029_
*46 _030_
*47 _031_
*48 _032_
*49 _033_
*50 _034_
*51 _035_
*52 _036_
*53 _037_
*54 _038_
*55 _039_
*56 _040_
*57 _041_
*58 _042_
*59 _043_
*60 _044_
*61 _045_
*62 _046_
*63 _047_
*64 _048_
*65 _049_
*66 _050_
*67 _051_
*68 _052_
*69 _053_
*70 _054_
*71 _055_
*72 _056_
*73 _057_
*74 _058_
*75 _059_
*76 _060_
*77 _061_
*78 _062_
*79 _063_
*80 _064_
*81 _065_
*82 _066_
*83 _067_
*84 _068_
*85 _069_
*86 _070_
*87 _071_
*88 _072_
*89 _073_
*90 _074_
*91 _075_
*92 _076_
*93 _077_
*94 _078_
*95 _079_
*96 _080_
*97 _081_
*98 _082_
*99 _083_
*100 _084_
*101 _085_
*102 _086_
*103 _087_
*104 _088_
*105 _089_
*106 _090_
*107 _091_
*108 _092_
*109 _093_
*110 _094_
*111 _095_
*112 _096_
*113 _097_
*114 _098_
*115 _099_
*116 _100_
*117 _101_
*118 _102_
*119 _103_
*120 _104_
*121 _105_
*122 _106_
*123 _107_
*124 _108_
*125 _109_
*126 _110_
*127 _111_
*128 _112_
*129 _113_
*130 _114_
*131 _115_
*132 _116_
*133 _117_
*134 _118_
*135 _119_
*136 clknet_0_CLK100MHZ
*137 clknet_2_0__leaf_CLK100MHZ
*138 clknet_2_1__leaf_CLK100MHZ
*139 clknet_2_2__leaf_CLK100MHZ
*140 clknet_2_3__leaf_CLK100MHZ
*141 decoder\.count\[0\]
*142 decoder\.count\[1\]
*143 decoder\.count\[2\]
*144 decoder\.count\[3\]
*145 decoder\.delay\[0\]
*146 decoder\.delay\[10\]
*147 decoder\.delay\[11\]
*148 decoder\.delay\[12\]
*149 decoder\.delay\[13\]
*150 decoder\.delay\[14\]
*151 decoder\.delay\[15\]
*152 decoder\.delay\[16\]
*153 decoder\.delay\[17\]
*154 decoder\.delay\[18\]
*155 decoder\.delay\[19\]
*156 decoder\.delay\[1\]
*157 decoder\.delay\[20\]
*158 decoder\.delay\[21\]
*159 decoder\.delay\[22\]
*160 decoder\.delay\[23\]
*161 decoder\.delay\[24\]
*162 decoder\.delay\[2\]
*163 decoder\.delay\[3\]
*164 decoder\.delay\[4\]
*165 decoder\.delay\[5\]
*166 decoder\.delay\[6\]
*167 decoder\.delay\[7\]
*168 decoder\.delay\[8\]
*169 decoder\.delay\[9\]
*170 net1
*171 net2
*172 net3
*173 net4
*174 net5
*175 net6
*176 net7
*177 FILLER_0_0_10
*178 FILLER_0_0_108
*179 FILLER_0_0_113
*180 FILLER_0_0_117
*181 FILLER_0_0_124
*182 FILLER_0_0_22
*183 FILLER_0_0_29
*184 FILLER_0_0_3
*185 FILLER_0_0_41
*186 FILLER_0_0_48
*187 FILLER_0_0_57
*188 FILLER_0_0_69
*189 FILLER_0_0_74
*190 FILLER_0_0_82
*191 FILLER_0_0_88
*192 FILLER_0_0_96
*193 FILLER_0_10_109
*194 FILLER_0_10_121
*195 FILLER_0_10_26
*196 FILLER_0_10_29
*197 FILLER_0_10_3
*198 FILLER_0_10_41
*199 FILLER_0_10_53
*200 FILLER_0_10_65
*201 FILLER_0_10_77
*202 FILLER_0_10_83
*203 FILLER_0_10_85
*204 FILLER_0_10_97
*205 FILLER_0_11_102
*206 FILLER_0_11_108
*207 FILLER_0_11_113
*208 FILLER_0_11_15
*209 FILLER_0_11_24
*210 FILLER_0_11_3
*211 FILLER_0_11_36
*212 FILLER_0_11_48
*213 FILLER_0_11_57
*214 FILLER_0_11_69
*215 FILLER_0_11_81
*216 FILLER_0_11_93
*217 FILLER_0_12_15
*218 FILLER_0_12_3
*219 FILLER_0_12_49
*220 FILLER_0_12_61
*221 FILLER_0_12_73
*222 FILLER_0_12_81
*223 FILLER_0_12_85
*224 FILLER_0_13_10
*225 FILLER_0_13_105
*226 FILLER_0_13_111
*227 FILLER_0_13_113
*228 FILLER_0_13_22
*229 FILLER_0_13_3
*230 FILLER_0_13_34
*231 FILLER_0_13_46
*232 FILLER_0_13_54
*233 FILLER_0_13_57
*234 FILLER_0_13_69
*235 FILLER_0_13_73
*236 FILLER_0_13_81
*237 FILLER_0_13_93
*238 FILLER_0_14_111
*239 FILLER_0_14_123
*240 FILLER_0_14_15
*241 FILLER_0_14_19
*242 FILLER_0_14_25
*243 FILLER_0_14_29
*244 FILLER_0_14_3
*245 FILLER_0_14_41
*246 FILLER_0_14_53
*247 FILLER_0_14_65
*248 FILLER_0_14_80
*249 FILLER_0_14_85
*250 FILLER_0_14_97
*251 FILLER_0_15_109
*252 FILLER_0_15_118
*253 FILLER_0_15_15
*254 FILLER_0_15_3
*255 FILLER_0_15_37
*256 FILLER_0_15_49
*257 FILLER_0_15_55
*258 FILLER_0_15_85
*259 FILLER_0_15_97
*260 FILLER_0_16_123
*261 FILLER_0_16_15
*262 FILLER_0_16_27
*263 FILLER_0_16_29
*264 FILLER_0_16_3
*265 FILLER_0_16_33
*266 FILLER_0_16_41
*267 FILLER_0_16_46
*268 FILLER_0_16_58
*269 FILLER_0_16_93
*270 FILLER_0_16_99
*271 FILLER_0_17_119
*272 FILLER_0_17_13
*273 FILLER_0_17_25
*274 FILLER_0_17_3
*275 FILLER_0_17_37
*276 FILLER_0_17_49
*277 FILLER_0_17_55
*278 FILLER_0_17_57
*279 FILLER_0_17_65
*280 FILLER_0_17_7
*281 FILLER_0_17_71
*282 FILLER_0_17_93
*283 FILLER_0_18_109
*284 FILLER_0_18_117
*285 FILLER_0_18_15
*286 FILLER_0_18_27
*287 FILLER_0_18_29
*288 FILLER_0_18_3
*289 FILLER_0_18_41
*290 FILLER_0_18_49
*291 FILLER_0_18_54
*292 FILLER_0_18_66
*293 FILLER_0_18_78
*294 FILLER_0_18_85
*295 FILLER_0_18_97
*296 FILLER_0_19_105
*297 FILLER_0_19_111
*298 FILLER_0_19_118
*299 FILLER_0_19_124
*300 FILLER_0_19_15
*301 FILLER_0_19_27
*302 FILLER_0_19_3
*303 FILLER_0_19_35
*304 FILLER_0_19_47
*305 FILLER_0_19_55
*306 FILLER_0_19_57
*307 FILLER_0_19_69
*308 FILLER_0_19_75
*309 FILLER_0_19_80
*310 FILLER_0_19_88
*311 FILLER_0_19_93
*312 FILLER_0_1_111
*313 FILLER_0_1_113
*314 FILLER_0_1_119
*315 FILLER_0_1_123
*316 FILLER_0_1_15
*317 FILLER_0_1_23
*318 FILLER_0_1_27
*319 FILLER_0_1_3
*320 FILLER_0_1_57
*321 FILLER_0_1_69
*322 FILLER_0_1_83
*323 FILLER_0_1_91
*324 FILLER_0_1_96
*325 FILLER_0_20_106
*326 FILLER_0_20_118
*327 FILLER_0_20_124
*328 FILLER_0_20_27
*329 FILLER_0_20_3
*330 FILLER_0_20_32
*331 FILLER_0_20_41
*332 FILLER_0_20_49
*333 FILLER_0_20_58
*334 FILLER_0_20_70
*335 FILLER_0_20_78
*336 FILLER_0_21_109
*337 FILLER_0_21_11
*338 FILLER_0_21_113
*339 FILLER_0_21_121
*340 FILLER_0_21_23
*341 FILLER_0_21_3
*342 FILLER_0_21_38
*343 FILLER_0_21_50
*344 FILLER_0_21_60
*345 FILLER_0_21_72
*346 FILLER_0_21_97
*347 FILLER_0_22_100
*348 FILLER_0_22_11
*349 FILLER_0_22_20
*350 FILLER_0_22_29
*351 FILLER_0_22_3
*352 FILLER_0_22_41
*353 FILLER_0_22_53
*354 FILLER_0_22_59
*355 FILLER_0_23_11
*356 FILLER_0_23_113
*357 FILLER_0_23_17
*358 FILLER_0_23_24
*359 FILLER_0_23_3
*360 FILLER_0_23_36
*361 FILLER_0_23_48
*362 FILLER_0_23_57
*363 FILLER_0_23_83
*364 FILLER_0_24_112
*365 FILLER_0_24_116
*366 FILLER_0_24_15
*367 FILLER_0_24_27
*368 FILLER_0_24_29
*369 FILLER_0_24_3
*370 FILLER_0_24_40
*371 FILLER_0_24_48
*372 FILLER_0_24_56
*373 FILLER_0_24_68
*374 FILLER_0_24_80
*375 FILLER_0_24_91
*376 FILLER_0_25_10
*377 FILLER_0_25_106
*378 FILLER_0_25_113
*379 FILLER_0_25_22
*380 FILLER_0_25_3
*381 FILLER_0_25_34
*382 FILLER_0_25_40
*383 FILLER_0_25_46
*384 FILLER_0_25_50
*385 FILLER_0_25_54
*386 FILLER_0_25_57
*387 FILLER_0_26_116
*388 FILLER_0_26_124
*389 FILLER_0_26_19
*390 FILLER_0_26_27
*391 FILLER_0_26_29
*392 FILLER_0_26_3
*393 FILLER_0_26_33
*394 FILLER_0_26_39
*395 FILLER_0_26_53
*396 FILLER_0_26_61
*397 FILLER_0_26_7
*398 FILLER_0_26_72
*399 FILLER_0_26_85
*400 FILLER_0_26_92
*401 FILLER_0_27_10
*402 FILLER_0_27_104
*403 FILLER_0_27_113
*404 FILLER_0_27_121
*405 FILLER_0_27_22
*406 FILLER_0_27_28
*407 FILLER_0_27_55
*408 FILLER_0_27_57
*409 FILLER_0_27_69
*410 FILLER_0_27_75
*411 FILLER_0_27_83
*412 FILLER_0_27_95
*413 FILLER_0_28_109
*414 FILLER_0_28_121
*415 FILLER_0_28_15
*416 FILLER_0_28_21
*417 FILLER_0_28_25
*418 FILLER_0_28_29
*419 FILLER_0_28_3
*420 FILLER_0_28_37
*421 FILLER_0_28_49
*422 FILLER_0_28_55
*423 FILLER_0_28_59
*424 FILLER_0_28_63
*425 FILLER_0_28_67
*426 FILLER_0_28_79
*427 FILLER_0_28_83
*428 FILLER_0_28_85
*429 FILLER_0_28_97
*430 FILLER_0_29_104
*431 FILLER_0_29_113
*432 FILLER_0_29_118
*433 FILLER_0_29_124
*434 FILLER_0_29_15
*435 FILLER_0_29_27
*436 FILLER_0_29_3
*437 FILLER_0_29_39
*438 FILLER_0_29_51
*439 FILLER_0_29_55
*440 FILLER_0_29_57
*441 FILLER_0_29_63
*442 FILLER_0_29_91
*443 FILLER_0_29_99
*444 FILLER_0_2_100
*445 FILLER_0_2_111
*446 FILLER_0_2_115
*447 FILLER_0_2_120
*448 FILLER_0_2_124
*449 FILLER_0_2_15
*450 FILLER_0_2_27
*451 FILLER_0_2_3
*452 FILLER_0_2_77
*453 FILLER_0_2_83
*454 FILLER_0_2_92
*455 FILLER_0_30_105
*456 FILLER_0_30_122
*457 FILLER_0_30_15
*458 FILLER_0_30_27
*459 FILLER_0_30_29
*460 FILLER_0_30_3
*461 FILLER_0_30_41
*462 FILLER_0_30_53
*463 FILLER_0_30_65
*464 FILLER_0_30_77
*465 FILLER_0_30_83
*466 FILLER_0_30_85
*467 FILLER_0_30_97
*468 FILLER_0_31_105
*469 FILLER_0_31_113
*470 FILLER_0_31_117
*471 FILLER_0_31_15
*472 FILLER_0_31_27
*473 FILLER_0_31_3
*474 FILLER_0_31_39
*475 FILLER_0_31_51
*476 FILLER_0_31_55
*477 FILLER_0_31_57
*478 FILLER_0_31_69
*479 FILLER_0_31_81
*480 FILLER_0_31_85
*481 FILLER_0_31_97
*482 FILLER_0_3_113
*483 FILLER_0_3_15
*484 FILLER_0_3_23
*485 FILLER_0_3_28
*486 FILLER_0_3_3
*487 FILLER_0_3_40
*488 FILLER_0_3_51
*489 FILLER_0_3_55
*490 FILLER_0_3_57
*491 FILLER_0_3_61
*492 FILLER_0_3_73
*493 FILLER_0_4_104
*494 FILLER_0_4_116
*495 FILLER_0_4_124
*496 FILLER_0_4_15
*497 FILLER_0_4_27
*498 FILLER_0_4_29
*499 FILLER_0_4_3
*500 FILLER_0_4_7
*501 FILLER_0_4_85
*502 FILLER_0_4_97
*503 FILLER_0_5_10
*504 FILLER_0_5_110
*505 FILLER_0_5_113
*506 FILLER_0_5_121
*507 FILLER_0_5_22
*508 FILLER_0_5_30
*509 FILLER_0_5_57
*510 FILLER_0_5_65
*511 FILLER_0_5_90
*512 FILLER_0_5_94
*513 FILLER_0_5_98
*514 FILLER_0_6_101
*515 FILLER_0_6_112
*516 FILLER_0_6_124
*517 FILLER_0_6_15
*518 FILLER_0_6_19
*519 FILLER_0_6_27
*520 FILLER_0_6_29
*521 FILLER_0_6_3
*522 FILLER_0_6_37
*523 FILLER_0_6_46
*524 FILLER_0_6_58
*525 FILLER_0_6_62
*526 FILLER_0_6_85
*527 FILLER_0_6_97
*528 FILLER_0_7_103
*529 FILLER_0_7_111
*530 FILLER_0_7_113
*531 FILLER_0_7_12
*532 FILLER_0_7_124
*533 FILLER_0_7_23
*534 FILLER_0_7_3
*535 FILLER_0_7_30
*536 FILLER_0_7_39
*537 FILLER_0_7_51
*538 FILLER_0_7_55
*539 FILLER_0_7_57
*540 FILLER_0_7_99
*541 FILLER_0_8_123
*542 FILLER_0_8_15
*543 FILLER_0_8_27
*544 FILLER_0_8_29
*545 FILLER_0_8_3
*546 FILLER_0_8_62
*547 FILLER_0_8_74
*548 FILLER_0_8_82
*549 FILLER_0_8_85
*550 FILLER_0_9_100
*551 FILLER_0_9_118
*552 FILLER_0_9_15
*553 FILLER_0_9_23
*554 FILLER_0_9_3
*555 FILLER_0_9_31
*556 FILLER_0_9_43
*557 FILLER_0_9_49
*558 FILLER_0_9_77
*559 PHY_EDGE_ROW_0_Left_32
*560 PHY_EDGE_ROW_0_Right_0
*561 PHY_EDGE_ROW_10_Left_42
*562 PHY_EDGE_ROW_10_Right_10
*563 PHY_EDGE_ROW_11_Left_43
*564 PHY_EDGE_ROW_11_Right_11
*565 PHY_EDGE_ROW_12_Left_44
*566 PHY_EDGE_ROW_12_Right_12
*567 PHY_EDGE_ROW_13_Left_45
*568 PHY_EDGE_ROW_13_Right_13
*569 PHY_EDGE_ROW_14_Left_46
*570 PHY_EDGE_ROW_14_Right_14
*571 PHY_EDGE_ROW_15_Left_47
*572 PHY_EDGE_ROW_15_Right_15
*573 PHY_EDGE_ROW_16_Left_48
*574 PHY_EDGE_ROW_16_Right_16
*575 PHY_EDGE_ROW_17_Left_49
*576 PHY_EDGE_ROW_17_Right_17
*577 PHY_EDGE_ROW_18_Left_50
*578 PHY_EDGE_ROW_18_Right_18
*579 PHY_EDGE_ROW_19_Left_51
*580 PHY_EDGE_ROW_19_Right_19
*581 PHY_EDGE_ROW_1_Left_33
*582 PHY_EDGE_ROW_1_Right_1
*583 PHY_EDGE_ROW_20_Left_52
*584 PHY_EDGE_ROW_20_Right_20
*585 PHY_EDGE_ROW_21_Left_53
*586 PHY_EDGE_ROW_21_Right_21
*587 PHY_EDGE_ROW_22_Left_54
*588 PHY_EDGE_ROW_22_Right_22
*589 PHY_EDGE_ROW_23_Left_55
*590 PHY_EDGE_ROW_23_Right_23
*591 PHY_EDGE_ROW_24_Left_56
*592 PHY_EDGE_ROW_24_Right_24
*593 PHY_EDGE_ROW_25_Left_57
*594 PHY_EDGE_ROW_25_Right_25
*595 PHY_EDGE_ROW_26_Left_58
*596 PHY_EDGE_ROW_26_Right_26
*597 PHY_EDGE_ROW_27_Left_59
*598 PHY_EDGE_ROW_27_Right_27
*599 PHY_EDGE_ROW_28_Left_60
*600 PHY_EDGE_ROW_28_Right_28
*601 PHY_EDGE_ROW_29_Left_61
*602 PHY_EDGE_ROW_29_Right_29
*603 PHY_EDGE_ROW_2_Left_34
*604 PHY_EDGE_ROW_2_Right_2
*605 PHY_EDGE_ROW_30_Left_62
*606 PHY_EDGE_ROW_30_Right_30
*607 PHY_EDGE_ROW_31_Left_63
*608 PHY_EDGE_ROW_31_Right_31
*609 PHY_EDGE_ROW_3_Left_35
*610 PHY_EDGE_ROW_3_Right_3
*611 PHY_EDGE_ROW_4_Left_36
*612 PHY_EDGE_ROW_4_Right_4
*613 PHY_EDGE_ROW_5_Left_37
*614 PHY_EDGE_ROW_5_Right_5
*615 PHY_EDGE_ROW_6_Left_38
*616 PHY_EDGE_ROW_6_Right_6
*617 PHY_EDGE_ROW_7_Left_39
*618 PHY_EDGE_ROW_7_Right_7
*619 PHY_EDGE_ROW_8_Left_40
*620 PHY_EDGE_ROW_8_Right_8
*621 PHY_EDGE_ROW_9_Left_41
*622 PHY_EDGE_ROW_9_Right_9
*623 TAP_TAPCELL_ROW_0_64
*624 TAP_TAPCELL_ROW_0_65
*625 TAP_TAPCELL_ROW_0_66
*626 TAP_TAPCELL_ROW_0_67
*627 TAP_TAPCELL_ROW_10_86
*628 TAP_TAPCELL_ROW_10_87
*629 TAP_TAPCELL_ROW_11_88
*630 TAP_TAPCELL_ROW_11_89
*631 TAP_TAPCELL_ROW_12_90
*632 TAP_TAPCELL_ROW_12_91
*633 TAP_TAPCELL_ROW_13_92
*634 TAP_TAPCELL_ROW_13_93
*635 TAP_TAPCELL_ROW_14_94
*636 TAP_TAPCELL_ROW_14_95
*637 TAP_TAPCELL_ROW_15_96
*638 TAP_TAPCELL_ROW_15_97
*639 TAP_TAPCELL_ROW_16_98
*640 TAP_TAPCELL_ROW_16_99
*641 TAP_TAPCELL_ROW_17_100
*642 TAP_TAPCELL_ROW_17_101
*643 TAP_TAPCELL_ROW_18_102
*644 TAP_TAPCELL_ROW_18_103
*645 TAP_TAPCELL_ROW_19_104
*646 TAP_TAPCELL_ROW_19_105
*647 TAP_TAPCELL_ROW_1_68
*648 TAP_TAPCELL_ROW_1_69
*649 TAP_TAPCELL_ROW_20_106
*650 TAP_TAPCELL_ROW_20_107
*651 TAP_TAPCELL_ROW_21_108
*652 TAP_TAPCELL_ROW_21_109
*653 TAP_TAPCELL_ROW_22_110
*654 TAP_TAPCELL_ROW_22_111
*655 TAP_TAPCELL_ROW_23_112
*656 TAP_TAPCELL_ROW_23_113
*657 TAP_TAPCELL_ROW_24_114
*658 TAP_TAPCELL_ROW_24_115
*659 TAP_TAPCELL_ROW_25_116
*660 TAP_TAPCELL_ROW_25_117
*661 TAP_TAPCELL_ROW_26_118
*662 TAP_TAPCELL_ROW_26_119
*663 TAP_TAPCELL_ROW_27_120
*664 TAP_TAPCELL_ROW_27_121
*665 TAP_TAPCELL_ROW_28_122
*666 TAP_TAPCELL_ROW_28_123
*667 TAP_TAPCELL_ROW_29_124
*668 TAP_TAPCELL_ROW_29_125
*669 TAP_TAPCELL_ROW_2_70
*670 TAP_TAPCELL_ROW_2_71
*671 TAP_TAPCELL_ROW_30_126
*672 TAP_TAPCELL_ROW_30_127
*673 TAP_TAPCELL_ROW_31_128
*674 TAP_TAPCELL_ROW_31_129
*675 TAP_TAPCELL_ROW_31_130
*676 TAP_TAPCELL_ROW_31_131
*677 TAP_TAPCELL_ROW_3_72
*678 TAP_TAPCELL_ROW_3_73
*679 TAP_TAPCELL_ROW_4_74
*680 TAP_TAPCELL_ROW_4_75
*681 TAP_TAPCELL_ROW_5_76
*682 TAP_TAPCELL_ROW_5_77
*683 TAP_TAPCELL_ROW_6_78
*684 TAP_TAPCELL_ROW_6_79
*685 TAP_TAPCELL_ROW_7_80
*686 TAP_TAPCELL_ROW_7_81
*687 TAP_TAPCELL_ROW_8_82
*688 TAP_TAPCELL_ROW_8_83
*689 TAP_TAPCELL_ROW_9_84
*690 TAP_TAPCELL_ROW_9_85
*691 ZeroToFiveCounter_10
*692 ZeroToFiveCounter_11
*693 ZeroToFiveCounter_8
*694 ZeroToFiveCounter_9
*695 _120_
*696 _121_
*697 _122_
*698 _123_
*699 _124_
*700 _125_
*701 _126_
*702 _127_
*703 _128_
*704 _129_
*705 _130_
*706 _131_
*707 _132_
*708 _133_
*709 _134_
*710 _135_
*711 _136_
*712 _137_
*713 _138_
*714 _139_
*715 _140_
*716 _141_
*717 _142_
*718 _143_
*719 _144_
*720 _145_
*721 _146_
*722 _147_
*723 _148_
*724 _149_
*725 _150_
*726 _151_
*727 _152_
*728 _153_
*729 _154_
*730 _155_
*731 _156_
*732 _157_
*733 _158_
*734 _159_
*735 _160_
*736 _161_
*737 _162_
*738 _163_
*739 _164_
*740 _165_
*741 _166_
*742 _167_
*743 _168_
*744 _169_
*745 _170_
*746 _171_
*747 _172_
*748 _173_
*749 _174_
*750 _175_
*751 _176_
*752 _177_
*753 _178_
*754 _179_
*755 _180_
*756 _181_
*757 _182_
*758 _183_
*759 _184_
*760 _185_
*761 _186_
*762 _187_
*763 _188_
*764 _189_
*765 _190_
*766 _191_
*767 _192_
*768 _193_
*769 _194_
*770 _195_
*771 _196_
*772 _197_
*773 _198_
*774 _199_
*775 _200_
*776 _201_
*777 _202_
*778 _203_
*779 _204_
*780 _205_
*781 _206_
*782 _207_
*783 _208_
*784 _209_
*785 _210_
*786 _211_
*787 _212_
*788 _213_
*789 _214_
*790 _215_
*791 _216_
*792 _217_
*793 _218_
*794 _219_
*795 _220_
*796 _221_
*797 _222_
*798 _223_
*799 _224_
*800 _225_
*801 _226_
*802 _227_
*803 _228_
*804 _229_
*805 _230_
*806 _231_
*807 _232_
*808 _233_
*809 _234_
*810 _235_
*811 _236_
*812 _237_
*813 _238_
*814 _239_
*815 _240_
*816 _241_
*817 _242_
*818 _243_
*819 _244_
*820 _245_
*821 _246_
*822 _247_
*823 _248_
*824 _249_
*825 _250_
*826 _251_
*827 _252_
*828 _253_
*829 _254_
*830 _255_
*831 _256_
*832 _257_
*833 _258_
*834 _259_
*835 _260_
*836 _261_
*837 _262_
*838 _263_
*839 _264_
*840 _265_
*841 _266_
*842 _267_
*843 _268_
*844 _269_
*845 _270_
*846 _271_
*847 _272_
*848 _273_
*849 _274_
*850 _279_
*851 clkbuf_0_CLK100MHZ
*852 clkbuf_2_0__f_CLK100MHZ
*853 clkbuf_2_1__f_CLK100MHZ
*854 clkbuf_2_2__f_CLK100MHZ
*855 clkbuf_2_3__f_CLK100MHZ
*856 clkload0
*857 clkload1
*858 clkload2
*859 output1
*860 output2
*861 output3
*862 output4
*863 output5
*864 output6
*865 output7

*PORTS
AN[0] O
AN[1] O
AN[2] O
AN[3] O
BTNC I
CLK100MHZ I
seg[0] O
seg[1] O
seg[2] O
seg[3] O
seg[4] O
seg[5] O
seg[6] O

*D_NET *1 0.000957578
*CONN
*P AN[0] O
*I *693:LO O *D sky130_fd_sc_hd__conb_1
*CAP
1 AN[0] 0.000415567
2 *693:LO 0.000415567
3 AN[0] seg[6] 0.000126444
*RES
1 *693:LO AN[0] 47.4664 
*END

*D_NET *2 0.00103299
*CONN
*P AN[1] O
*I *694:HI O *D sky130_fd_sc_hd__conb_1
*CAP
1 AN[1] 0.000480918
2 *694:HI 0.000480918
3 AN[1] *728:A 1.41077e-05
4 AN[1] *130:100 5.70419e-05
*RES
1 *694:HI AN[1] 47.57 
*END

*D_NET *3 0.000864718
*CONN
*P AN[2] O
*I *691:HI O *D sky130_fd_sc_hd__conb_1
*CAP
1 AN[2] 0.000429723
2 *691:HI 0.000429723
3 AN[2] *43:8 5.27215e-06
*RES
1 *691:HI AN[2] 46.6171 
*END

*D_NET *4 0.000864718
*CONN
*P AN[3] O
*I *692:HI O *D sky130_fd_sc_hd__conb_1
*CAP
1 AN[3] 0.000429723
2 *692:HI 0.000429723
3 AN[3] *43:8 5.27215e-06
*RES
1 *692:HI AN[3] 46.6171 
*END

*D_NET *5 0.0197217
*CONN
*P BTNC I
*I *801:A I *D sky130_fd_sc_hd__clkbuf_8
*I *789:A I *D sky130_fd_sc_hd__buf_4
*CAP
1 BTNC 0.00336185
2 *801:A 0
3 *789:A 0.000141687
4 *5:36 0.000856961
5 *5:21 0.0014333
6 *5:11 0.00551043
7 *789:A *117:6 2.56967e-05
8 *789:A *128:20 5.3304e-05
9 *789:A *128:108 0.000100069
10 *5:11 *56:24 0.000189911
11 *5:11 *61:14 0.0026819
12 *5:11 *91:20 0.000808059
13 *5:11 *147:26 2.24182e-05
14 *5:11 *153:72 0
15 *5:21 *825:CLK 0.000437185
16 *5:21 *23:12 0.000484805
17 *5:21 *23:16 5.0718e-05
18 *5:21 *100:12 0.00048325
19 *5:21 *135:14 0.000235456
20 *5:21 *135:28 9.11252e-05
21 *5:21 *140:10 0.000204448
22 *5:21 *140:12 0.000209693
23 *5:21 *140:14 0.000310298
24 *5:21 *140:69 8.04327e-05
25 *5:21 *145:24 0.000187027
26 *5:21 *163:26 0.000411548
27 *5:21 *169:18 7.71219e-06
28 *5:21 *172:22 0.000163354
29 *5:36 *824:RESET_B 0
30 *5:36 *23:12 0.000188895
31 *5:36 *125:20 0
32 *5:36 *129:163 0.000317604
33 *5:36 *130:6 0.000171826
34 *5:36 *133:62 0.000223188
35 *5:36 *140:69 0.000118487
36 *5:36 *153:87 0
37 *5:36 *159:76 0.00015901
*RES
1 BTNC *5:11 17.8747 
2 *5:11 *5:21 37.8735 
3 *5:21 *789:A 40.5271 
4 *5:11 *5:36 34.6475 
5 *5:36 *801:A 23 
*END

*D_NET *6 0.0129104
*CONN
*P CLK100MHZ I
*I *851:A I *D sky130_fd_sc_hd__clkbuf_16
*CAP
1 CLK100MHZ 0.00466789
2 *851:A 6.51351e-05
3 *6:21 0.00473302
4 *851:A *761:A 0.000140927
5 *851:A *135:44 5.3304e-05
6 *6:21 *28:24 0.00140966
7 *6:21 *32:14 0.000388711
8 *6:21 *36:24 0.000142577
9 *6:21 *41:30 0.000133649
10 *6:21 *56:12 9.5739e-06
11 *6:21 *72:34 0.000403131
12 *6:21 *86:24 0.000287194
13 *6:21 *99:18 0
14 *6:21 *105:14 0
15 *6:21 *107:24 0
16 *6:21 *126:26 1.51233e-05
17 *6:21 *130:90 0.000137899
18 *6:21 *135:44 3.43144e-05
19 *6:21 *147:26 0.000165269
20 *6:21 *150:22 0.000123047
21 *6:21 *159:49 0
*RES
1 CLK100MHZ *6:21 47.7053 
2 *6:21 *851:A 39.5743 
*END

*D_NET *9 0.00107656
*CONN
*P seg[0] O
*I *859:X O *D sky130_fd_sc_hd__buf_1
*CAP
1 seg[0] 0.000538278
2 *859:X 0.000538278
3 seg[0] *82:146 0
*RES
1 *859:X seg[0] 49.5353 
*END

*D_NET *10 0.00080412
*CONN
*P seg[1] O
*I *860:X O *D sky130_fd_sc_hd__buf_1
*CAP
1 seg[1] 0.000389709
2 *860:X 0.000389709
3 seg[1] *104:27 2.47015e-05
*RES
1 *860:X seg[1] 47.0789 
*END

*D_NET *11 0.000883052
*CONN
*P seg[2] O
*I *861:X O *D sky130_fd_sc_hd__buf_1
*CAP
1 seg[2] 0.000415105
2 *861:X 0.000415105
3 seg[2] *47:12 0
4 seg[2] *104:27 5.28413e-05
*RES
1 *861:X seg[2] 47.4311 
*END

*D_NET *12 0.000899327
*CONN
*P seg[3] O
*I *862:X O *D sky130_fd_sc_hd__buf_1
*CAP
1 seg[3] 0.000372199
2 *862:X 0.000372199
3 seg[3] *47:12 7.53756e-05
4 seg[3] *104:33 7.95535e-05
5 seg[3] *125:24 0
*RES
1 *862:X seg[3] 49.881 
*END

*D_NET *13 0.00153766
*CONN
*P seg[4] O
*I *863:X O *D sky130_fd_sc_hd__buf_1
*CAP
1 seg[4] 0.000472778
2 *863:X 0.000174715
3 *13:12 0.000647493
4 seg[4] *129:112 1.8558e-05
5 *13:12 *795:A 5.3304e-05
6 *13:12 *45:8 1.05887e-05
7 *13:12 *128:132 9.28078e-06
8 *13:12 *129:122 0.000150941
*RES
1 *863:X *13:12 49.1796 
2 *13:12 seg[4] 0.9296 
*END

*D_NET *14 0.000917935
*CONN
*P seg[5] O
*I *864:X O *D sky130_fd_sc_hd__buf_1
*CAP
1 seg[5] 0.000329856
2 *864:X 0.000329856
3 seg[5] *847:RESET_B 0
4 seg[5] *47:20 0.000233522
5 seg[5] *129:122 2.47015e-05
*RES
1 *864:X seg[5] 47.0789 
*END

*D_NET *15 0.00101592
*CONN
*P seg[6] O
*I *865:X O *D sky130_fd_sc_hd__buf_1
*CAP
1 seg[6] 0.000444737
2 *865:X 0.000444737
3 AN[0] seg[6] 0.000126444
*RES
1 *865:X seg[6] 48.831 
*END

*D_NET *16 0.00434568
*CONN
*I *825:D I *D sky130_fd_sc_hd__dfrtp_4
*I *740:Y O *D sky130_fd_sc_hd__inv_2
*CAP
1 *825:D 0
2 *740:Y 5.77008e-05
3 *16:14 0.00144394
4 *16:8 0.00150164
5 *16:14 *47:20 0
6 *16:14 *104:27 0.000250839
7 *16:14 *128:118 8.4047e-05
8 *16:14 *128:132 0.000343405
9 *16:14 *129:122 0.000342983
10 *16:14 *145:8 0.000123753
11 *16:14 *173:10 0.000197373
*RES
1 *740:Y *16:8 38.6214 
2 *16:8 *16:14 44.3107 
3 *16:14 *825:D 23 
*END

*D_NET *17 0.00671595
*CONN
*I *835:D I *D sky130_fd_sc_hd__dfrtp_1
*I *769:Y O *D sky130_fd_sc_hd__a21boi_1
*CAP
1 *835:D 0
2 *769:Y 7.35838e-05
3 *17:14 0.00143341
4 *17:8 0.001507
5 *17:8 *151:14 0.000100486
6 *17:14 *713:A3 4.45778e-05
7 *17:14 *826:D 0.000298503
8 *17:14 *833:RESET_B 0.000119701
9 *17:14 *835:CLK 5.3304e-05
10 *17:14 *845:RESET_B 0.000916868
11 *17:14 *77:14 0.000783461
12 *17:14 *77:20 1.22906e-05
13 *17:14 *83:41 0.000264869
14 *17:14 *86:34 0.000220516
15 *17:14 *90:28 0
16 *17:14 *97:12 0.000121723
17 *17:14 *122:14 4.19375e-05
18 *17:14 *124:12 0.000121067
19 *17:14 *134:84 0.000332757
20 *17:14 *153:28 2.43424e-05
21 *17:14 *161:96 8.30566e-06
22 *17:14 *165:24 0.000237247
*RES
1 *769:Y *17:8 39.0979 
2 *17:8 *17:14 48.205 
3 *17:14 *835:D 23 
*END

*D_NET *18 0.00360841
*CONN
*I *836:D I *D sky130_fd_sc_hd__dfrtp_2
*I *773:X O *D sky130_fd_sc_hd__clkbuf_1
*CAP
1 *836:D 0
2 *773:X 0.000261663
3 *18:16 0.000530231
4 *18:10 0.000791894
5 *18:10 *846:CLK 0.000107431
6 *18:10 *846:D 4.27796e-05
7 *18:10 *82:168 9.02048e-05
8 *18:16 *828:RESET_B 0.000136738
9 *18:16 *836:CLK 6.17437e-06
10 *18:16 *82:134 8.85371e-05
11 *18:16 *93:12 0.000855544
12 *18:16 *110:73 2.76123e-05
13 *18:16 *161:66 0.000659512
14 *18:16 *165:35 1.0092e-05
*RES
1 *773:X *18:10 42.93 
2 *18:10 *18:16 28.6921 
3 *18:16 *836:D 23 
*END

*D_NET *19 0.00548277
*CONN
*I *837:D I *D sky130_fd_sc_hd__dfrtp_4
*I *774:Y O *D sky130_fd_sc_hd__xnor2_1
*CAP
1 *837:D 0
2 *774:Y 0
3 *19:12 0.00137616
4 *19:6 0.00137616
5 *19:12 *714:A 0
6 *19:12 *837:CLK 7.87243e-05
7 *19:12 *837:RESET_B 6.81712e-05
8 *19:12 *36:20 0.000920069
9 *19:12 *48:8 0.000324878
10 *19:12 *75:99 0
11 *19:12 *81:29 0
12 *19:12 *129:151 0.000142678
13 *19:12 *129:157 8.0612e-06
14 *19:12 *139:51 0
15 *19:12 *139:57 4.69418e-05
16 *19:12 *141:53 0
17 *19:12 *152:47 3.72639e-05
18 *19:12 *164:10 8.4047e-05
19 *19:12 *164:14 0.00101961
*RES
1 *774:Y *19:6 38 
2 *19:6 *19:12 45.885 
3 *19:12 *837:D 23 
*END

*D_NET *20 0.0128312
*CONN
*I *838:D I *D sky130_fd_sc_hd__dfrtp_2
*I *777:X O *D sky130_fd_sc_hd__o21ba_1
*CAP
1 *838:D 0
2 *777:X 0.00148125
3 *20:26 0.000485711
4 *20:18 0.00160308
5 *20:6 0.00259861
6 *20:6 *122:45 0.00177949
7 *20:18 *41:30 7.49704e-05
8 *20:18 *42:10 0.00126331
9 *20:18 *77:61 6.83554e-05
10 *20:18 *111:14 0.00154308
11 *20:18 *111:24 0
12 *20:18 *115:22 0.000110915
13 *20:26 *732:A 0.00078783
14 *20:26 *838:CLK 6.70361e-05
15 *20:26 *130:154 0.00093773
16 *20:26 *149:12 2.98167e-05
*RES
1 *777:X *20:6 43.155 
2 *20:6 *20:18 43.0886 
3 *20:18 *20:26 28.1743 
4 *20:26 *838:D 23 
*END

*D_NET *21 0.0121282
*CONN
*I *839:D I *D sky130_fd_sc_hd__dfrtp_1
*I *779:X O *D sky130_fd_sc_hd__o2bb2a_1
*CAP
1 *839:D 0
2 *779:X 0.0002493
3 *21:26 0.00128635
4 *21:16 0.00261643
5 *21:8 0.00157938
6 *21:8 *123:18 4.98143e-05
7 *21:8 *151:14 0.0002778
8 *21:16 *32:14 0.000493853
9 *21:16 *85:28 0
10 *21:16 *99:18 0
11 *21:16 *100:24 7.07833e-06
12 *21:16 *101:8 0.00013063
13 *21:16 *124:22 9.97846e-05
14 *21:16 *130:90 7.44642e-05
15 *21:16 *134:42 7.46975e-05
16 *21:16 *151:14 3.54728e-05
17 *21:16 *159:49 0.000489783
18 *21:16 *162:10 8.30566e-06
19 *21:16 *162:24 4.44064e-05
20 *21:26 *821:CLK 0.000333115
21 *21:26 *839:CLK 0.000510386
22 *21:26 *839:RESET_B 6.17437e-06
23 *21:26 *107:24 0.000110915
24 *21:26 *108:14 3.43588e-05
25 *21:26 *123:14 0.00161218
26 *21:26 *141:14 0.00026025
27 *21:26 *150:78 0.000142177
28 *21:26 *157:24 0.00144004
29 *21:26 *157:49 0.000161042
*RES
1 *779:X *21:8 41.9564 
2 *21:8 *21:16 32.8159 
3 *21:16 *21:26 49.2511 
4 *21:26 *839:D 23 
*END

*D_NET *22 0.0018647
*CONN
*I *840:D I *D sky130_fd_sc_hd__dfrtp_1
*I *781:Y O *D sky130_fd_sc_hd__nor2_1
*CAP
1 *840:D 0
2 *781:Y 0.000490185
3 *22:12 0.000490185
4 *22:12 *781:A 0.000571042
5 *22:12 *82:66 5.3304e-05
6 *22:12 *82:74 0.000165384
7 *22:12 *134:48 1.47795e-05
8 *22:12 *155:23 7.98226e-05
*RES
1 *781:Y *22:12 48.0464 
2 *22:12 *840:D 38 
*END

*D_NET *23 0.0108238
*CONN
*I *841:D I *D sky130_fd_sc_hd__dfrtp_2
*I *782:X O *D sky130_fd_sc_hd__xor2_1
*CAP
1 *841:D 0
2 *782:X 0.000241648
3 *23:16 0.000961157
4 *23:12 0.00192646
5 *23:8 0.00120695
6 *23:8 *82:134 5.50049e-05
7 *23:8 *91:10 0.000311554
8 *23:8 *132:98 0.000653232
9 *23:12 *40:28 6.52088e-06
10 *23:12 *120:26 0.000141029
11 *23:12 *125:20 9.26237e-05
12 *23:12 *133:62 0.000146114
13 *23:12 *140:92 0.000121351
14 *23:12 *162:52 0.000477843
15 *23:12 *172:22 0.000165636
16 *23:16 *703:C 4.38375e-05
17 *23:16 *825:CLK 0.0001201
18 *23:16 *27:12 0.000753669
19 *23:16 *40:28 2.06225e-05
20 *23:16 *74:10 0.00164002
21 *23:16 *75:41 4.99753e-06
22 *23:16 *79:14 8.34806e-05
23 *23:16 *109:22 0.0001527
24 *23:16 *133:43 0.000118197
25 *23:16 *135:28 0.000328955
26 *23:16 *141:87 0.000314912
27 *23:16 *162:52 1.08015e-05
28 *5:21 *23:12 0.000484805
29 *5:21 *23:16 5.0718e-05
30 *5:36 *23:12 0.000188895
*RES
1 *782:X *23:8 45.2914 
2 *23:8 *23:12 24.6604 
3 *23:12 *23:16 44.0725 
4 *23:16 *841:D 23 
*END

*D_NET *24 0.00804647
*CONN
*I *842:D I *D sky130_fd_sc_hd__dfrtp_2
*I *785:Y O *D sky130_fd_sc_hd__nor2_1
*CAP
1 *842:D 0.00216748
2 *785:Y 4.32251e-05
3 *24:12 0.00270275
4 *24:8 0.000578493
5 *842:D *809:A 0.000209169
6 *842:D *816:A 1.97978e-05
7 *842:D *841:CLK 7.68529e-05
8 *842:D *841:RESET_B 1.22775e-06
9 *842:D *842:CLK 6.30668e-05
10 *842:D *83:41 8.89108e-06
11 *842:D *152:8 1.80204e-05
12 *842:D *161:35 0.0001348
13 *842:D *161:96 3.75094e-05
14 *24:8 *126:34 1.43261e-05
15 *24:12 *68:18 8.6247e-05
16 *24:12 *80:32 2.26497e-05
17 *24:12 *142:134 0.000863029
18 *24:12 *158:42 0.0001771
19 *24:12 *164:64 0.000676939
20 *24:12 *176:8 0.000144892
*RES
1 *785:Y *24:8 38.6214 
2 *24:8 *24:12 32.0479 
3 *24:12 *842:D 48.3025 
*END

*D_NET *25 0.0092712
*CONN
*I *843:D I *D sky130_fd_sc_hd__dfrtp_2
*I *786:X O *D sky130_fd_sc_hd__xor2_1
*CAP
1 *843:D 0.000227233
2 *786:X 2.98451e-05
3 *25:10 0.00218885
4 *25:8 0.00199147
5 *843:D *712:A3 0.000182832
6 *843:D *810:A 9.67842e-05
7 *843:D *82:51 0.000256538
8 *843:D *85:16 0.000697236
9 *843:D *137:53 5.49617e-05
10 *843:D *137:61 4.05745e-05
11 *25:8 *786:B 5.56279e-05
12 *25:10 *695:A 7.45617e-05
13 *25:10 *64:8 0
14 *25:10 *90:10 0.000290185
15 *25:10 *90:18 8.16459e-05
16 *25:10 *106:36 7.70435e-05
17 *25:10 *110:83 0.00255548
18 *25:10 *116:26 9.22867e-05
19 *25:10 *143:26 0.000253355
20 *25:10 *159:49 2.46922e-05
*RES
1 *786:X *25:8 38.6214 
2 *25:8 *25:10 48.3886 
3 *25:10 *843:D 46.7207 
*END

*D_NET *26 0.000627573
*CONN
*I *844:D I *D sky130_fd_sc_hd__dfrtp_1
*I *788:X O *D sky130_fd_sc_hd__o2bb2a_1
*CAP
1 *844:D 0.000104191
2 *788:X 0.000110641
3 *26:8 0.000214832
4 *844:D *844:RESET_B 0.000126518
5 *26:8 *788:A2_N 1.13812e-05
6 *26:8 *137:61 6.00097e-05
*RES
1 *788:X *26:8 40.2579 
2 *26:8 *844:D 40.5271 
*END

*D_NET *27 0.00955668
*CONN
*I *826:D I *D sky130_fd_sc_hd__dfrtp_1
*I *744:X O *D sky130_fd_sc_hd__clkbuf_1
*CAP
1 *826:D 0.00197769
2 *744:X 3.83684e-05
3 *27:12 0.00276092
4 *27:8 0.000821598
5 *826:D *96:18 0.000647018
6 *826:D *97:12 7.69066e-05
7 *826:D *132:22 2.37931e-05
8 *826:D *132:26 3.32626e-05
9 *826:D *147:42 0.000218895
10 *27:8 *96:8 5.67058e-05
11 *27:12 *74:10 0.000340016
12 *27:12 *141:87 0.00150934
13 *17:14 *826:D 0.000298503
14 *23:16 *27:12 0.000753669
*RES
1 *744:X *27:8 38.6214 
2 *27:8 *27:12 35.9214 
3 *27:12 *826:D 48.4164 
*END

*D_NET *28 0.0145637
*CONN
*I *845:D I *D sky130_fd_sc_hd__dfrtp_1
*I *720:Y O *D sky130_fd_sc_hd__nor2_1
*CAP
1 *845:D 0.000173093
2 *720:Y 9.65737e-05
3 *28:24 0.00347499
4 *28:8 0.00339847
5 *845:D *74:10 0
6 *845:D *90:28 9.08887e-05
7 *28:8 *88:32 1.67523e-05
8 *28:8 *89:22 1.33694e-05
9 *28:24 *43:10 0
10 *28:24 *47:20 0.000902655
11 *28:24 *49:10 0.000116228
12 *28:24 *56:12 3.13462e-06
13 *28:24 *56:24 0.000129592
14 *28:24 *90:28 0.000145781
15 *28:24 *91:44 0.000383503
16 *28:24 *95:66 0.00019654
17 *28:24 *105:10 0.00010737
18 *28:24 *105:14 0.00115901
19 *28:24 *128:160 0.000919435
20 *28:24 *130:90 8.91431e-05
21 *28:24 *134:42 0.00035736
22 *28:24 *134:54 2.5343e-05
23 *28:24 *141:87 5.79413e-06
24 *28:24 *149:26 0.000594795
25 *28:24 *161:12 0
26 *28:24 *166:18 0
27 *28:24 *167:20 0.000754246
28 *28:24 *174:12 0
29 *28:24 *174:16 0
30 *6:21 *28:24 0.00140966
*RES
1 *720:Y *28:8 39.0979 
2 *28:8 *28:24 48.6225 
3 *28:24 *845:D 40.9621 
*END

*D_NET *29 0.0119809
*CONN
*I *846:D I *D sky130_fd_sc_hd__dfrtp_1
*I *722:X O *D sky130_fd_sc_hd__o21ba_1
*CAP
1 *846:D 8.60337e-05
2 *722:X 0.000342931
3 *29:24 0.00258366
4 *29:12 0.00284056
5 *29:12 *830:RESET_B 4.46009e-05
6 *29:12 *847:RESET_B 5.13351e-06
7 *29:12 *80:32 0.000130409
8 *29:12 *100:24 0.000381966
9 *29:12 *126:34 4.40769e-05
10 *29:24 *838:RESET_B 4.96982e-05
11 *29:24 *75:49 0.000127194
12 *29:24 *77:104 0.000135574
13 *29:24 *83:22 0.000113774
14 *29:24 *100:24 8.39214e-05
15 *29:24 *125:20 8.24578e-05
16 *29:24 *130:162 2.23467e-05
17 *29:24 *133:43 0.00141642
18 *29:24 *133:62 0.00120714
19 *29:24 *153:28 0.000568958
20 *29:24 *153:43 0.000282441
21 *29:24 *159:70 0.00138878
22 *18:10 *846:D 4.27796e-05
*RES
1 *722:X *29:12 49.2198 