* NGSPICE file created from alu.ext - technology: sky130A

* Black-box entry subcircuit for sky130_fd_sc_hd__xor2_2 abstract view
.subckt sky130_fd_sc_hd__xor2_2 A B VGND VNB VPB VPWR X
.ends

* Black-box entry subcircuit for sky130_fd_sc_hd__fill_1 abstract view
.subckt sky130_fd_sc_hd__fill_1 VGND VNB VPB VPWR
.ends

* Black-box entry subcircuit for sky130_fd_sc_hd__tapvpwrvgnd_1 abstract view
.subckt sky130_fd_sc_hd__tapvpwrvgnd_1 VGND VPWR
.ends

* Black-box entry subcircuit for sky130_fd_sc_hd__or3_1 abstract view
.subckt sky130_fd_sc_hd__or3_1 A B C VGND VNB VPB VPWR X
.ends

* Black-box entry subcircuit for sky130_ef_sc_hd__decap_12 abstract view
.subckt sky130_ef_sc_hd__decap_12 VPWR VGND VPB VNB
.ends

* Black-box entry subcircuit for sky130_fd_sc_hd__and2b_1 abstract view
.subckt sky130_fd_sc_hd__and2b_1 A_N B VGND VNB VPB VPWR X
.ends

* Black-box entry subcircuit for sky130_fd_sc_hd__nand2_2 abstract view
.subckt sky130_fd_sc_hd__nand2_2 A B VGND VNB VPB VPWR Y
.ends

* Black-box entry subcircuit for sky130_fd_sc_hd__xnor2_1 abstract view
.subckt sky130_fd_sc_hd__xnor2_1 A B VGND VNB VPB VPWR Y
.ends

* Black-box entry subcircuit for sky130_fd_sc_hd__decap_8 abstract view
.subckt sky130_fd_sc_hd__decap_8 VGND VNB VPB VPWR
.ends

* Black-box entry subcircuit for sky130_fd_sc_hd__decap_3 abstract view
.subckt sky130_fd_sc_hd__decap_3 VGND VNB VPB VPWR
.ends

* Black-box entry subcircuit for sky130_fd_sc_hd__decap_4 abstract view
.subckt sky130_fd_sc_hd__decap_4 VGND VNB VPB VPWR
.ends

* Black-box entry subcircuit for sky130_fd_sc_hd__buf_2 abstract view
.subckt sky130_fd_sc_hd__buf_2 A VGND VNB VPB VPWR X
.ends

* Black-box entry subcircuit for sky130_fd_sc_hd__o21a_1 abstract view
.subckt sky130_fd_sc_hd__o21a_1 A1 A2 B1 VGND VNB VPB VPWR X
.ends

* Black-box entry subcircuit for sky130_fd_sc_hd__a311oi_4 abstract view
.subckt sky130_fd_sc_hd__a311oi_4 A1 A2 A3 B1 C1 VGND VNB VPB VPWR Y
.ends

* Black-box entry subcircuit for sky130_fd_sc_hd__a31o_1 abstract view
.subckt sky130_fd_sc_hd__a31o_1 A1 A2 A3 B1 VGND VNB VPB VPWR X
.ends

* Black-box entry subcircuit for sky130_fd_sc_hd__nand2_1 abstract view
.subckt sky130_fd_sc_hd__nand2_1 A B VGND VNB VPB VPWR Y
.ends

* Black-box entry subcircuit for sky130_fd_sc_hd__fill_2 abstract view
.subckt sky130_fd_sc_hd__fill_2 VGND VNB VPB VPWR
.ends

* Black-box entry subcircuit for sky130_fd_sc_hd__decap_6 abstract view
.subckt sky130_fd_sc_hd__decap_6 VGND VNB VPB VPWR
.ends

* Black-box entry subcircuit for sky130_fd_sc_hd__xnor2_2 abstract view
.subckt sky130_fd_sc_hd__xnor2_2 A B VGND VNB VPB VPWR Y
.ends

* Black-box entry subcircuit for sky130_fd_sc_hd__a21oi_2 abstract view
.subckt sky130_fd_sc_hd__a21oi_2 A1 A2 B1 VGND VNB VPB VPWR Y
.ends

* Black-box entry subcircuit for sky130_fd_sc_hd__xnor2_4 abstract view
.subckt sky130_fd_sc_hd__xnor2_4 A B VGND VNB VPB VPWR Y
.ends

* Black-box entry subcircuit for sky130_fd_sc_hd__or2b_1 abstract view
.subckt sky130_fd_sc_hd__or2b_1 A B_N VGND VNB VPB VPWR X
.ends

* Black-box entry subcircuit for sky130_fd_sc_hd__a21o_1 abstract view
.subckt sky130_fd_sc_hd__a21o_1 A1 A2 B1 VGND VNB VPB VPWR X
.ends

* Black-box entry subcircuit for sky130_fd_sc_hd__o22a_1 abstract view
.subckt sky130_fd_sc_hd__o22a_1 A1 A2 B1 B2 VGND VNB VPB VPWR X
.ends

* Black-box entry subcircuit for sky130_fd_sc_hd__a311o_4 abstract view
.subckt sky130_fd_sc_hd__a311o_4 A1 A2 A3 B1 C1 VGND VNB VPB VPWR X
.ends

* Black-box entry subcircuit for sky130_fd_sc_hd__inv_2 abstract view
.subckt sky130_fd_sc_hd__inv_2 A VGND VNB VPB VPWR Y
.ends

* Black-box entry subcircuit for sky130_fd_sc_hd__o21bai_4 abstract view
.subckt sky130_fd_sc_hd__o21bai_4 A1 A2 B1_N VGND VNB VPB VPWR Y
.ends

* Black-box entry subcircuit for sky130_fd_sc_hd__o21bai_1 abstract view
.subckt sky130_fd_sc_hd__o21bai_1 A1 A2 B1_N VGND VNB VPB VPWR Y
.ends

* Black-box entry subcircuit for sky130_fd_sc_hd__a21oi_1 abstract view
.subckt sky130_fd_sc_hd__a21oi_1 A1 A2 B1 VGND VNB VPB VPWR Y
.ends

* Black-box entry subcircuit for sky130_fd_sc_hd__or2_4 abstract view
.subckt sky130_fd_sc_hd__or2_4 A B VGND VNB VPB VPWR X
.ends

* Black-box entry subcircuit for sky130_fd_sc_hd__and4_2 abstract view
.subckt sky130_fd_sc_hd__and4_2 A B C D VGND VNB VPB VPWR X
.ends

* Black-box entry subcircuit for sky130_fd_sc_hd__a311o_1 abstract view
.subckt sky130_fd_sc_hd__a311o_1 A1 A2 A3 B1 C1 VGND VNB VPB VPWR X
.ends

* Black-box entry subcircuit for sky130_fd_sc_hd__or2_1 abstract view
.subckt sky130_fd_sc_hd__or2_1 A B VGND VNB VPB VPWR X
.ends

* Black-box entry subcircuit for sky130_fd_sc_hd__nand2_4 abstract view
.subckt sky130_fd_sc_hd__nand2_4 A B VGND VNB VPB VPWR Y
.ends

* Black-box entry subcircuit for sky130_fd_sc_hd__nor2_1 abstract view
.subckt sky130_fd_sc_hd__nor2_1 A B VGND VNB VPB VPWR Y
.ends

* Black-box entry subcircuit for sky130_fd_sc_hd__a22oi_4 abstract view
.subckt sky130_fd_sc_hd__a22oi_4 A1 A2 B1 B2 VGND VNB VPB VPWR Y
.ends

* Black-box entry subcircuit for sky130_fd_sc_hd__nor2_2 abstract view
.subckt sky130_fd_sc_hd__nor2_2 A B VGND VNB VPB VPWR Y
.ends

* Black-box entry subcircuit for sky130_fd_sc_hd__o21ai_1 abstract view
.subckt sky130_fd_sc_hd__o21ai_1 A1 A2 B1 VGND VNB VPB VPWR Y
.ends

* Black-box entry subcircuit for sky130_fd_sc_hd__clkbuf_4 abstract view
.subckt sky130_fd_sc_hd__clkbuf_4 A VGND VNB VPB VPWR X
.ends

* Black-box entry subcircuit for sky130_fd_sc_hd__and2_1 abstract view
.subckt sky130_fd_sc_hd__and2_1 A B VGND VNB VPB VPWR X
.ends

* Black-box entry subcircuit for sky130_fd_sc_hd__buf_6 abstract view
.subckt sky130_fd_sc_hd__buf_6 A VGND VNB VPB VPWR X
.ends

* Black-box entry subcircuit for sky130_fd_sc_hd__o31a_2 abstract view
.subckt sky130_fd_sc_hd__o31a_2 A1 A2 A3 B1 VGND VNB VPB VPWR X
.ends

* Black-box entry subcircuit for sky130_fd_sc_hd__nand3b_4 abstract view
.subckt sky130_fd_sc_hd__nand3b_4 A_N B C VGND VNB VPB VPWR Y
.ends

* Black-box entry subcircuit for sky130_fd_sc_hd__o211ai_2 abstract view
.subckt sky130_fd_sc_hd__o211ai_2 A1 A2 B1 C1 VGND VNB VPB VPWR Y
.ends

* Black-box entry subcircuit for sky130_fd_sc_hd__o21ai_4 abstract view
.subckt sky130_fd_sc_hd__o21ai_4 A1 A2 B1 VGND VNB VPB VPWR Y
.ends

* Black-box entry subcircuit for sky130_fd_sc_hd__o21ai_2 abstract view
.subckt sky130_fd_sc_hd__o21ai_2 A1 A2 B1 VGND VNB VPB VPWR Y
.ends

* Black-box entry subcircuit for sky130_fd_sc_hd__a22o_1 abstract view
.subckt sky130_fd_sc_hd__a22o_1 A1 A2 B1 B2 VGND VNB VPB VPWR X
.ends

* Black-box entry subcircuit for sky130_fd_sc_hd__nor3_2 abstract view
.subckt sky130_fd_sc_hd__nor3_2 A B C VGND VNB VPB VPWR Y
.ends

* Black-box entry subcircuit for sky130_fd_sc_hd__a21bo_1 abstract view
.subckt sky130_fd_sc_hd__a21bo_1 A1 A2 B1_N VGND VNB VPB VPWR X
.ends

* Black-box entry subcircuit for sky130_fd_sc_hd__o221a_1 abstract view
.subckt sky130_fd_sc_hd__o221a_1 A1 A2 B1 B2 C1 VGND VNB VPB VPWR X
.ends

* Black-box entry subcircuit for sky130_fd_sc_hd__buf_1 abstract view
.subckt sky130_fd_sc_hd__buf_1 A VGND VNB VPB VPWR X
.ends

* Black-box entry subcircuit for sky130_fd_sc_hd__and3_1 abstract view
.subckt sky130_fd_sc_hd__and3_1 A B C VGND VNB VPB VPWR X
.ends

* Black-box entry subcircuit for sky130_fd_sc_hd__clkbuf_2 abstract view
.subckt sky130_fd_sc_hd__clkbuf_2 A VGND VNB VPB VPWR X
.ends

* Black-box entry subcircuit for sky130_fd_sc_hd__a211o_1 abstract view
.subckt sky130_fd_sc_hd__a211o_1 A1 A2 B1 C1 VGND VNB VPB VPWR X
.ends

* Black-box entry subcircuit for sky130_fd_sc_hd__or3b_2 abstract view
.subckt sky130_fd_sc_hd__or3b_2 A B C_N VGND VNB VPB VPWR X
.ends

* Black-box entry subcircuit for sky130_fd_sc_hd__nand3_4 abstract view
.subckt sky130_fd_sc_hd__nand3_4 A B C VGND VNB VPB VPWR Y
.ends

* Black-box entry subcircuit for sky130_fd_sc_hd__a31o_2 abstract view
.subckt sky130_fd_sc_hd__a31o_2 A1 A2 A3 B1 VGND VNB VPB VPWR X
.ends

* Black-box entry subcircuit for sky130_fd_sc_hd__a221o_1 abstract view
.subckt sky130_fd_sc_hd__a221o_1 A1 A2 B1 B2 C1 VGND VNB VPB VPWR X
.ends

* Black-box entry subcircuit for sky130_fd_sc_hd__and2_4 abstract view
.subckt sky130_fd_sc_hd__and2_4 A B VGND VNB VPB VPWR X
.ends

* Black-box entry subcircuit for sky130_fd_sc_hd__and3_2 abstract view
.subckt sky130_fd_sc_hd__and3_2 A B C VGND VNB VPB VPWR X
.ends

* Black-box entry subcircuit for sky130_fd_sc_hd__buf_4 abstract view
.subckt sky130_fd_sc_hd__buf_4 A VGND VNB VPB VPWR X
.ends

* Black-box entry subcircuit for sky130_fd_sc_hd__or4b_2 abstract view
.subckt sky130_fd_sc_hd__or4b_2 A B C D_N VGND VNB VPB VPWR X
.ends

* Black-box entry subcircuit for sky130_fd_sc_hd__and4_1 abstract view
.subckt sky130_fd_sc_hd__and4_1 A B C D VGND VNB VPB VPWR X
.ends

* Black-box entry subcircuit for sky130_fd_sc_hd__nand3_1 abstract view
.subckt sky130_fd_sc_hd__nand3_1 A B C VGND VNB VPB VPWR Y
.ends

* Black-box entry subcircuit for sky130_fd_sc_hd__and3b_2 abstract view
.subckt sky130_fd_sc_hd__and3b_2 A_N B C VGND VNB VPB VPWR X
.ends

* Black-box entry subcircuit for sky130_fd_sc_hd__or3b_1 abstract view
.subckt sky130_fd_sc_hd__or3b_1 A B C_N VGND VNB VPB VPWR X
.ends

* Black-box entry subcircuit for sky130_fd_sc_hd__or3_4 abstract view
.subckt sky130_fd_sc_hd__or3_4 A B C VGND VNB VPB VPWR X
.ends

* Black-box entry subcircuit for sky130_fd_sc_hd__xor2_1 abstract view
.subckt sky130_fd_sc_hd__xor2_1 A B VGND VNB VPB VPWR X
.ends

* Black-box entry subcircuit for sky130_fd_sc_hd__o21a_4 abstract view
.subckt sky130_fd_sc_hd__o21a_4 A1 A2 B1 VGND VNB VPB VPWR X
.ends

* Black-box entry subcircuit for sky130_fd_sc_hd__and3b_1 abstract view
.subckt sky130_fd_sc_hd__and3b_1 A_N B C VGND VNB VPB VPWR X
.ends

* Black-box entry subcircuit for sky130_fd_sc_hd__nor2_4 abstract view
.subckt sky130_fd_sc_hd__nor2_4 A B VGND VNB VPB VPWR Y
.ends

* Black-box entry subcircuit for sky130_fd_sc_hd__or2_2 abstract view
.subckt sky130_fd_sc_hd__or2_2 A B VGND VNB VPB VPWR X
.ends

* Black-box entry subcircuit for sky130_fd_sc_hd__and2_2 abstract view
.subckt sky130_fd_sc_hd__and2_2 A B VGND VNB VPB VPWR X
.ends

* Black-box entry subcircuit for sky130_fd_sc_hd__dlymetal6s2s_1 abstract view
.subckt sky130_fd_sc_hd__dlymetal6s2s_1 A VGND VNB VPB VPWR X
.ends

* Black-box entry subcircuit for sky130_fd_sc_hd__a31oi_1 abstract view
.subckt sky130_fd_sc_hd__a31oi_1 A1 A2 A3 B1 VGND VNB VPB VPWR Y
.ends

* Black-box entry subcircuit for sky130_fd_sc_hd__buf_8 abstract view
.subckt sky130_fd_sc_hd__buf_8 A VGND VNB VPB VPWR X
.ends

* Black-box entry subcircuit for sky130_fd_sc_hd__diode_2 abstract view
.subckt sky130_fd_sc_hd__diode_2 DIODE VGND VNB VPB VPWR
.ends

* Black-box entry subcircuit for sky130_fd_sc_hd__nand3_2 abstract view
.subckt sky130_fd_sc_hd__nand3_2 A B C VGND VNB VPB VPWR Y
.ends

* Black-box entry subcircuit for sky130_fd_sc_hd__dlymetal6s4s_1 abstract view
.subckt sky130_fd_sc_hd__dlymetal6s4s_1 A VGND VNB VPB VPWR X
.ends

* Black-box entry subcircuit for sky130_fd_sc_hd__xor2_4 abstract view
.subckt sky130_fd_sc_hd__xor2_4 A B VGND VNB VPB VPWR X
.ends

.subckt alu A[0] A[1] A[2] A[3] A[4] A[5] A[6] A[7] B[0] B[1] B[2] B[3] B[4] B[5]
+ B[6] B[7] VGND VPWR opcode[0] opcode[1] opcode[2] out[0] out[1] out[2] out[3] out[4]
+ out[5] out[6] out[7]
X_294_ _048_ _049_ VGND VGND VPWR VPWR _050_ sky130_fd_sc_hd__xor2_2
XFILLER_0_1_185 VGND VGND VPWR VPWR sky130_fd_sc_hd__fill_1
XTAP_TAPCELL_ROW_6_107 VGND VPWR sky130_fd_sc_hd__tapvpwrvgnd_1
X_346_ _089_ _092_ _096_ VGND VGND VPWR VPWR _097_ sky130_fd_sc_hd__or3_1
XFILLER_0_18_29 VPWR VGND VPWR VGND sky130_ef_sc_hd__decap_12
XFILLER_0_38_9 VPWR VGND VPWR VGND sky130_ef_sc_hd__decap_12
X_277_ net28 _023_ VGND VGND VPWR VPWR _034_ sky130_fd_sc_hd__and2b_1
XFILLER_0_37_169 VPWR VGND VPWR VGND sky130_ef_sc_hd__decap_12
XFILLER_0_37_147 VPWR VGND VPWR VGND sky130_ef_sc_hd__decap_12
X_200_ _117_ _127_ VGND VGND VPWR VPWR _128_ sky130_fd_sc_hd__nand2_2
X_329_ _079_ _080_ VGND VGND VPWR VPWR _081_ sky130_fd_sc_hd__xnor2_1
XFILLER_0_0_29 VPWR VGND VPWR VGND sky130_ef_sc_hd__decap_12
XFILLER_0_10_85 VPWR VGND VPWR VGND sky130_ef_sc_hd__decap_12
XFILLER_0_27_180 VGND VGND VPWR VPWR sky130_fd_sc_hd__decap_8
XFILLER_0_19_169 VPWR VGND VPWR VGND sky130_ef_sc_hd__decap_12
XFILLER_0_19_147 VPWR VGND VPWR VGND sky130_ef_sc_hd__decap_12
XFILLER_0_15_19 VPWR VGND VPWR VGND sky130_ef_sc_hd__decap_12
XFILLER_0_21_40 VGND VGND VPWR VPWR sky130_fd_sc_hd__decap_3
XFILLER_0_30_186 VGND VGND VPWR VPWR sky130_fd_sc_hd__decap_4
XFILLER_0_30_153 VPWR VGND VPWR VGND sky130_ef_sc_hd__decap_12
XFILLER_0_26_29 VGND VGND VPWR VPWR sky130_fd_sc_hd__fill_1
XFILLER_0_22_109 VPWR VGND VPWR VGND sky130_ef_sc_hd__decap_12
XFILLER_0_32_72 VPWR VGND VPWR VGND sky130_ef_sc_hd__decap_12
XFILLER_0_16_73 VGND VGND VPWR VPWR sky130_fd_sc_hd__decap_8
XPHY_EDGE_ROW_16_Left_59 VGND VGND VPWR VPWR sky130_fd_sc_hd__decap_3
XFILLER_0_12_153 VPWR VGND VPWR VGND sky130_ef_sc_hd__decap_12
Xoutput20 net20 VGND VGND VPWR VPWR out[0] sky130_fd_sc_hd__buf_2
XFILLER_0_37_17 VGND VGND VPWR VPWR sky130_fd_sc_hd__decap_8
XFILLER_0_4_161 VPWR VGND VPWR VGND sky130_ef_sc_hd__decap_12
XTAP_TAPCELL_ROW_9_116 VGND VPWR sky130_fd_sc_hd__tapvpwrvgnd_1
X_293_ net15 _025_ net30 VGND VGND VPWR VPWR _049_ sky130_fd_sc_hd__o21a_1
XFILLER_0_1_120 VPWR VGND VPWR VGND sky130_ef_sc_hd__decap_12
XTAP_TAPCELL_ROW_6_108 VGND VPWR sky130_fd_sc_hd__tapvpwrvgnd_1
XFILLER_0_34_29 VPWR VGND VPWR VGND sky130_ef_sc_hd__decap_12
XPHY_EDGE_ROW_19_Left_62 VGND VGND VPWR VPWR sky130_fd_sc_hd__decap_3
XFILLER_0_18_19 VGND VGND VPWR VPWR sky130_fd_sc_hd__fill_1
X_276_ _015_ _166_ _019_ _030_ _029_ VGND VGND VPWR VPWR _033_ sky130_fd_sc_hd__a311oi_4
X_345_ _138_ _100_ _093_ _095_ VGND VGND VPWR VPWR _096_ sky130_fd_sc_hd__a31o_1
XFILLER_0_40_83 VGND VGND VPWR VPWR sky130_fd_sc_hd__fill_1
XFILLER_0_37_159 VGND VGND VPWR VPWR sky130_fd_sc_hd__decap_8
XPHY_EDGE_ROW_21_Right_21 VGND VGND VPWR VPWR sky130_fd_sc_hd__decap_3
XPHY_EDGE_ROW_4_Left_47 VGND VGND VPWR VPWR sky130_fd_sc_hd__decap_3
XFILLER_0_4_83 VGND VGND VPWR VPWR sky130_fd_sc_hd__fill_1
XPHY_EDGE_ROW_12_Right_12 VGND VGND VPWR VPWR sky130_fd_sc_hd__decap_3
XPHY_EDGE_ROW_30_Right_30 VGND VGND VPWR VPWR sky130_fd_sc_hd__decap_3
X_259_ net14 _016_ VGND VGND VPWR VPWR _017_ sky130_fd_sc_hd__xnor2_1
XFILLER_0_0_19 VGND VGND VPWR VPWR sky130_fd_sc_hd__decap_8
X_328_ _169_ _008_ VGND VGND VPWR VPWR _080_ sky130_fd_sc_hd__nand2_1
XFILLER_0_42_184 VGND VGND VPWR VPWR sky130_fd_sc_hd__fill_2
XFILLER_0_35_72 VPWR VGND VPWR VGND sky130_ef_sc_hd__decap_12
XFILLER_0_34_118 VPWR VGND VPWR VGND sky130_ef_sc_hd__decap_12
XFILLER_0_19_159 VGND VGND VPWR VPWR sky130_fd_sc_hd__fill_1
XTAP_TAPCELL_ROW_0_90 VGND VPWR sky130_fd_sc_hd__tapvpwrvgnd_1
XFILLER_0_10_97 VPWR VGND VPWR VGND sky130_ef_sc_hd__decap_12
XFILLER_0_33_162 VGND VGND VPWR VPWR sky130_fd_sc_hd__decap_6
XFILLER_0_18_181 VGND VGND VPWR VPWR sky130_fd_sc_hd__fill_1
XFILLER_0_16_107 VGND VGND VPWR VPWR sky130_fd_sc_hd__fill_1
XFILLER_0_30_165 VGND VGND VPWR VPWR sky130_fd_sc_hd__fill_2
XFILLER_0_1_51 VGND VGND VPWR VPWR sky130_fd_sc_hd__decap_4
XFILLER_0_42_29 VPWR VGND VPWR VGND sky130_ef_sc_hd__decap_12
XFILLER_0_16_41 VPWR VGND VPWR VGND sky130_ef_sc_hd__decap_12
XPHY_EDGE_ROW_7_Left_50 VGND VGND VPWR VPWR sky130_fd_sc_hd__decap_3
XPHY_EDGE_ROW_6_Right_6 VGND VGND VPWR VPWR sky130_fd_sc_hd__decap_3
XFILLER_0_12_165 VPWR VGND VPWR VGND sky130_ef_sc_hd__decap_12
Xoutput21 net21 VGND VGND VPWR VPWR out[1] sky130_fd_sc_hd__buf_2
XPHY_EDGE_ROW_33_Left_76 VGND VGND VPWR VPWR sky130_fd_sc_hd__decap_3
XTAP_TAPCELL_ROW_32_185 VGND VPWR sky130_fd_sc_hd__tapvpwrvgnd_1
X_292_ net16 net8 VGND VGND VPWR VPWR _048_ sky130_fd_sc_hd__xnor2_2
XFILLER_0_4_173 VPWR VGND VPWR VGND sky130_ef_sc_hd__decap_12
XTAP_TAPCELL_ROW_9_117 VGND VPWR sky130_fd_sc_hd__tapvpwrvgnd_1
XFILLER_0_1_132 VPWR VGND VPWR VGND sky130_ef_sc_hd__decap_12
XTAP_TAPCELL_ROW_6_109 VGND VPWR sky130_fd_sc_hd__tapvpwrvgnd_1
XFILLER_0_38_83 VGND VGND VPWR VPWR sky130_fd_sc_hd__fill_1
XTAP_TAPCELL_ROW_37_200 VGND VPWR sky130_fd_sc_hd__tapvpwrvgnd_1
X_275_ _029_ _031_ VGND VGND VPWR VPWR _032_ sky130_fd_sc_hd__nand2_1
XFILLER_0_34_19 VGND VGND VPWR VPWR sky130_fd_sc_hd__decap_8
X_344_ net13 net5 _094_ VGND VGND VPWR VPWR _095_ sky130_fd_sc_hd__a21oi_2
XTAP_TAPCELL_ROW_11_122 VGND VPWR sky130_fd_sc_hd__tapvpwrvgnd_1
XFILLER_0_24_85 VPWR VGND VPWR VGND sky130_ef_sc_hd__decap_12
XFILLER_0_24_74 VGND VGND VPWR VPWR sky130_fd_sc_hd__decap_8
XFILLER_0_24_41 VPWR VGND VPWR VGND sky130_ef_sc_hd__decap_12
XPHY_EDGE_ROW_20_Left_63 VGND VGND VPWR VPWR sky130_fd_sc_hd__decap_3
XFILLER_0_29_19 VPWR VGND VPWR VGND sky130_ef_sc_hd__decap_12
X_189_ _102_ _116_ VGND VGND VPWR VPWR _117_ sky130_fd_sc_hd__xnor2_4
XFILLER_0_35_84 VPWR VGND VPWR VGND sky130_ef_sc_hd__decap_12
XFILLER_0_29_7 VPWR VGND VPWR VGND sky130_ef_sc_hd__decap_12
XTAP_TAPCELL_ROW_0_91 VGND VPWR sky130_fd_sc_hd__tapvpwrvgnd_1
X_327_ _012_ _011_ VGND VGND VPWR VPWR _079_ sky130_fd_sc_hd__or2b_1
X_258_ net13 _163_ _164_ VGND VGND VPWR VPWR _016_ sky130_fd_sc_hd__a21o_1
XFILLER_0_42_141 VPWR VGND VPWR VGND sky130_ef_sc_hd__decap_12
XFILLER_0_24_141 VPWR VGND VPWR VGND sky130_ef_sc_hd__decap_12
XFILLER_0_21_86 VGND VGND VPWR VPWR sky130_fd_sc_hd__decap_6
XFILLER_0_1_74 VGND VGND VPWR VPWR sky130_fd_sc_hd__fill_1
XFILLER_0_21_166 VGND VGND VPWR VPWR sky130_fd_sc_hd__fill_2
XFILLER_0_21_122 VPWR VGND VPWR VGND sky130_ef_sc_hd__decap_12
XFILLER_0_21_111 VGND VGND VPWR VPWR sky130_fd_sc_hd__fill_1
XFILLER_0_32_96 VGND VGND VPWR VPWR sky130_fd_sc_hd__fill_2
XFILLER_0_16_53 VGND VGND VPWR VPWR sky130_fd_sc_hd__fill_1
XFILLER_0_12_111 VGND VGND VPWR VPWR sky130_fd_sc_hd__fill_2
XFILLER_0_12_177 VPWR VGND VPWR VGND sky130_ef_sc_hd__decap_12
XTAP_TAPCELL_ROW_35_194 VGND VPWR sky130_fd_sc_hd__tapvpwrvgnd_1
Xoutput22 net22 VGND VGND VPWR VPWR out[2] sky130_fd_sc_hd__buf_2
XFILLER_0_27_63 VPWR VGND VPWR VGND sky130_ef_sc_hd__decap_12
XTAP_TAPCELL_ROW_32_186 VGND VPWR sky130_fd_sc_hd__tapvpwrvgnd_1
X_291_ _032_ _034_ _047_ VGND VGND VPWR VPWR net26 sky130_fd_sc_hd__a21o_1
XFILLER_0_4_141 VGND VGND VPWR VPWR sky130_fd_sc_hd__decap_4
XFILLER_0_4_185 VGND VGND VPWR VPWR sky130_fd_sc_hd__decap_4
XTAP_TAPCELL_ROW_9_118 VGND VPWR sky130_fd_sc_hd__tapvpwrvgnd_1
XTAP_TAPCELL_ROW_14_131 VGND VPWR sky130_fd_sc_hd__tapvpwrvgnd_1
XTAP_TAPCELL_ROW_37_201 VGND VPWR sky130_fd_sc_hd__tapvpwrvgnd_1
XFILLER_0_1_144 VPWR VGND VPWR VGND sky130_ef_sc_hd__decap_12
XFILLER_0_1_111 VGND VGND VPWR VPWR sky130_fd_sc_hd__fill_1
X_343_ net5 _153_ _090_ _158_ VGND VGND VPWR VPWR _094_ sky130_fd_sc_hd__o22a_1
XFILLER_0_0_7 VPWR VGND VPWR VGND sky130_ef_sc_hd__decap_12
X_274_ _019_ _166_ _015_ _030_ VGND VGND VPWR VPWR _031_ sky130_fd_sc_hd__a31o_1
XTAP_TAPCELL_ROW_11_123 VGND VPWR sky130_fd_sc_hd__tapvpwrvgnd_1
XFILLER_0_40_41 VPWR VGND VPWR VGND sky130_ef_sc_hd__decap_12
XFILLER_0_24_97 VGND VGND VPWR VPWR sky130_fd_sc_hd__fill_2
XFILLER_0_24_53 VPWR VGND VPWR VGND sky130_ef_sc_hd__decap_12
XFILLER_0_4_41 VPWR VGND VPWR VGND sky130_ef_sc_hd__decap_12
XFILLER_0_4_85 VPWR VGND VPWR VGND sky130_ef_sc_hd__decap_12
XFILLER_0_35_96 VGND VGND VPWR VPWR sky130_fd_sc_hd__fill_1
X_188_ _110_ _115_ VGND VGND VPWR VPWR _116_ sky130_fd_sc_hd__xnor2_4
XFILLER_0_28_139 VGND VGND VPWR VPWR sky130_fd_sc_hd__fill_1
X_326_ _008_ _023_ _072_ _078_ VGND VGND VPWR VPWR net22 sky130_fd_sc_hd__a31o_1
X_257_ _169_ _008_ _011_ _012_ _014_ VGND VGND VPWR VPWR _015_ sky130_fd_sc_hd__a311o_4
XFILLER_0_19_31 VPWR VGND VPWR VGND sky130_ef_sc_hd__decap_12
XFILLER_0_42_153 VPWR VGND VPWR VGND sky130_ef_sc_hd__decap_12
XFILLER_0_34_109 VGND VGND VPWR VPWR sky130_fd_sc_hd__decap_6
XFILLER_0_21_32 VGND VGND VPWR VPWR sky130_fd_sc_hd__decap_8
X_309_ _101_ _103_ _156_ _062_ VGND VGND VPWR VPWR _063_ sky130_fd_sc_hd__o22a_1
XFILLER_0_24_153 VPWR VGND VPWR VGND sky130_ef_sc_hd__decap_12
XFILLER_0_30_123 VPWR VGND VPWR VGND sky130_ef_sc_hd__decap_12
XFILLER_0_21_189 VGND VGND VPWR VPWR sky130_fd_sc_hd__fill_1
XFILLER_0_21_134 VPWR VGND VPWR VGND sky130_ef_sc_hd__decap_12
XFILLER_0_8_139 VGND VGND VPWR VPWR sky130_fd_sc_hd__fill_1
XFILLER_0_12_189 VGND VGND VPWR VPWR sky130_fd_sc_hd__fill_1
XTAP_TAPCELL_ROW_35_195 VGND VPWR sky130_fd_sc_hd__tapvpwrvgnd_1
Xoutput23 net23 VGND VGND VPWR VPWR out[3] sky130_fd_sc_hd__buf_2
XFILLER_0_27_75 VPWR VGND VPWR VGND sky130_ef_sc_hd__decap_12
XFILLER_0_27_31 VGND VGND VPWR VPWR sky130_fd_sc_hd__fill_1
XTAP_TAPCELL_ROW_32_187 VGND VPWR sky130_fd_sc_hd__tapvpwrvgnd_1
XTAP_TAPCELL_ROW_17_140 VGND VPWR sky130_fd_sc_hd__tapvpwrvgnd_1
X_290_ _100_ _040_ _041_ _046_ VGND VGND VPWR VPWR _047_ sky130_fd_sc_hd__a31o_1
XTAP_TAPCELL_ROW_14_132 VGND VPWR sky130_fd_sc_hd__tapvpwrvgnd_1
XFILLER_0_13_55 VGND VGND VPWR VPWR sky130_fd_sc_hd__fill_1
XFILLER_0_38_85 VPWR VGND VPWR VGND sky130_ef_sc_hd__decap_12
XFILLER_0_38_41 VGND VGND VPWR VPWR sky130_fd_sc_hd__fill_1
XTAP_TAPCELL_ROW_37_202 VGND VPWR sky130_fd_sc_hd__tapvpwrvgnd_1
XFILLER_0_1_156 VPWR VGND VPWR VGND sky130_ef_sc_hd__decap_12
X_342_ _134_ _137_ _129_ VGND VGND VPWR VPWR _093_ sky130_fd_sc_hd__a21o_1
X_273_ _018_ VGND VGND VPWR VPWR _030_ sky130_fd_sc_hd__inv_2
XTAP_TAPCELL_ROW_11_124 VGND VPWR sky130_fd_sc_hd__tapvpwrvgnd_1
XFILLER_0_39_181 VGND VGND VPWR VPWR sky130_fd_sc_hd__fill_2
XFILLER_0_40_53 VPWR VGND VPWR VGND sky130_ef_sc_hd__decap_12
XFILLER_0_24_65 VGND VGND VPWR VPWR sky130_fd_sc_hd__decap_4
XFILLER_0_4_53 VPWR VGND VPWR VGND sky130_ef_sc_hd__decap_12
XFILLER_0_4_97 VPWR VGND VPWR VGND sky130_ef_sc_hd__decap_12
X_187_ _111_ _113_ _114_ VGND VGND VPWR VPWR _115_ sky130_fd_sc_hd__o21bai_4
X_256_ _166_ _013_ VGND VGND VPWR VPWR _014_ sky130_fd_sc_hd__nand2_1
XFILLER_0_19_98 VPWR VGND VPWR VGND sky130_ef_sc_hd__decap_12
XFILLER_0_19_76 VPWR VGND VPWR VGND sky130_ef_sc_hd__decap_12
XFILLER_0_19_43 VPWR VGND VPWR VGND sky130_ef_sc_hd__decap_12
X_325_ _134_ _073_ _077_ VGND VGND VPWR VPWR _078_ sky130_fd_sc_hd__o21bai_1
XFILLER_0_10_78 VGND VGND VPWR VPWR sky130_fd_sc_hd__decap_6
XFILLER_0_42_176 VGND VGND VPWR VPWR sky130_fd_sc_hd__decap_6
XFILLER_0_42_165 VGND VGND VPWR VPWR sky130_fd_sc_hd__decap_3
XFILLER_0_35_53 VGND VGND VPWR VPWR sky130_fd_sc_hd__decap_3
X_239_ net31 _162_ _106_ VGND VGND VPWR VPWR _167_ sky130_fd_sc_hd__a21oi_2
XFILLER_0_34_7 VPWR VGND VPWR VGND sky130_ef_sc_hd__decap_12
XFILLER_0_24_165 VPWR VGND VPWR VGND sky130_ef_sc_hd__decap_12
X_308_ _101_ _103_ _158_ VGND VGND VPWR VPWR _062_ sky130_fd_sc_hd__a21oi_1
XFILLER_0_30_135 VGND VGND VPWR VPWR sky130_fd_sc_hd__decap_4
XFILLER_0_32_43 VPWR VGND VPWR VGND sky130_ef_sc_hd__decap_12
XFILLER_0_21_146 VPWR VGND VPWR VGND sky130_ef_sc_hd__decap_12
XFILLER_0_21_113 VGND VGND VPWR VPWR sky130_fd_sc_hd__decap_3
XTAP_TAPCELL_ROW_35_196 VGND VPWR sky130_fd_sc_hd__tapvpwrvgnd_1
XFILLER_0_25_3 VPWR VGND VPWR VGND sky130_ef_sc_hd__decap_12
Xoutput24 net24 VGND VGND VPWR VPWR out[4] sky130_fd_sc_hd__buf_2
XPHY_EDGE_ROW_28_Right_28 VGND VGND VPWR VPWR sky130_fd_sc_hd__decap_3
XPHY_EDGE_ROW_19_Right_19 VGND VGND VPWR VPWR sky130_fd_sc_hd__decap_3
XPHY_EDGE_ROW_37_Right_37 VGND VGND VPWR VPWR sky130_fd_sc_hd__decap_3
XFILLER_0_27_87 VPWR VGND VPWR VGND sky130_ef_sc_hd__decap_12
XFILLER_0_27_54 VGND VGND VPWR VPWR sky130_fd_sc_hd__fill_2
XTAP_TAPCELL_ROW_17_141 VGND VPWR sky130_fd_sc_hd__tapvpwrvgnd_1
XFILLER_0_4_121 VPWR VGND VPWR VGND sky130_ef_sc_hd__decap_12
XFILLER_0_7_53 VGND VGND VPWR VPWR sky130_fd_sc_hd__decap_3
XFILLER_0_38_97 VPWR VGND VPWR VGND sky130_ef_sc_hd__decap_12
XTAP_TAPCELL_ROW_14_133 VGND VPWR sky130_fd_sc_hd__tapvpwrvgnd_1
X_272_ _027_ _028_ VGND VGND VPWR VPWR _029_ sky130_fd_sc_hd__or2_4
X_341_ net13 net5 _151_ _091_ VGND VGND VPWR VPWR _092_ sky130_fd_sc_hd__a31o_1
XFILLER_0_40_65 VPWR VGND VPWR VGND sky130_ef_sc_hd__decap_12
XFILLER_0_40_98 VPWR VGND VPWR VGND sky130_ef_sc_hd__decap_12
XTAP_TAPCELL_ROW_40_209 VGND VPWR sky130_fd_sc_hd__tapvpwrvgnd_1
XFILLER_0_4_65 VPWR VGND VPWR VGND sky130_ef_sc_hd__decap_12
XFILLER_0_36_141 VPWR VGND VPWR VGND sky130_ef_sc_hd__decap_12
XPHY_EDGE_ROW_24_Left_67 VGND VGND VPWR VPWR sky130_fd_sc_hd__decap_3
X_186_ net9 net10 net3 net4 VGND VGND VPWR VPWR _114_ sky130_fd_sc_hd__and4_2
X_324_ _104_ _106_ _151_ _075_ _076_ VGND VGND VPWR VPWR _077_ sky130_fd_sc_hd__a311o_1
X_255_ net5 _165_ VGND VGND VPWR VPWR _013_ sky130_fd_sc_hd__or2_1
XFILLER_0_35_65 VGND VGND VPWR VPWR sky130_fd_sc_hd__fill_1
XFILLER_0_27_163 VGND VGND VPWR VPWR sky130_fd_sc_hd__decap_4
XFILLER_0_19_88 VGND VGND VPWR VPWR sky130_fd_sc_hd__decap_4
XFILLER_0_19_55 VGND VGND VPWR VPWR sky130_fd_sc_hd__fill_1
XFILLER_0_33_111 VGND VGND VPWR VPWR sky130_fd_sc_hd__fill_1
XFILLER_0_18_141 VPWR VGND VPWR VGND sky130_ef_sc_hd__decap_12
XFILLER_0_27_7 VPWR VGND VPWR VGND sky130_ef_sc_hd__decap_12
XFILLER_0_24_177 VPWR VGND VPWR VGND sky130_ef_sc_hd__decap_12
X_307_ net34 _118_ _058_ _061_ VGND VGND VPWR VPWR net20 sky130_fd_sc_hd__a31o_1
X_238_ net5 _165_ VGND VGND VPWR VPWR _166_ sky130_fd_sc_hd__nand2_4
XFILLER_0_1_55 VGND VGND VPWR VPWR sky130_fd_sc_hd__fill_1
XFILLER_0_32_88 VGND VGND VPWR VPWR sky130_fd_sc_hd__decap_8
XFILLER_0_32_55 VGND VGND VPWR VPWR sky130_fd_sc_hd__fill_2
XFILLER_0_32_11 VPWR VGND VPWR VGND sky130_ef_sc_hd__decap_12
XFILLER_0_21_169 VPWR VGND VPWR VGND sky130_ef_sc_hd__decap_12
XFILLER_0_21_158 VGND VGND VPWR VPWR sky130_fd_sc_hd__decap_8
XFILLER_0_16_89 VPWR VGND VPWR VGND sky130_ef_sc_hd__decap_12
XPHY_EDGE_ROW_27_Left_70 VGND VGND VPWR VPWR sky130_fd_sc_hd__decap_3
XFILLER_0_18_3 VPWR VGND VPWR VGND sky130_ef_sc_hd__decap_12
XFILLER_0_7_152 VPWR VGND VPWR VGND sky130_ef_sc_hd__decap_12
XPHY_EDGE_ROW_11_Left_54 VGND VGND VPWR VPWR sky130_fd_sc_hd__decap_3
XFILLER_0_12_136 VGND VGND VPWR VPWR sky130_fd_sc_hd__decap_4
Xoutput25 net25 VGND VGND VPWR VPWR out[5] sky130_fd_sc_hd__buf_2
XFILLER_0_27_99 VGND VGND VPWR VPWR sky130_fd_sc_hd__decap_6
XTAP_TAPCELL_ROW_17_142 VGND VPWR sky130_fd_sc_hd__tapvpwrvgnd_1
XFILLER_0_4_133 VGND VGND VPWR VPWR sky130_fd_sc_hd__decap_6
XFILLER_0_7_21 VPWR VGND VPWR VGND sky130_ef_sc_hd__decap_12
XFILLER_0_7_65 VGND VGND VPWR VPWR sky130_fd_sc_hd__decap_3
XFILLER_0_38_21 VGND VGND VPWR VPWR sky130_fd_sc_hd__decap_6
XFILLER_0_13_57 VPWR VGND VPWR VGND sky130_ef_sc_hd__decap_12
XFILLER_0_1_169 VPWR VGND VPWR VGND sky130_ef_sc_hd__decap_12
XFILLER_0_1_103 VGND VGND VPWR VPWR sky130_fd_sc_hd__decap_8
XFILLER_0_13_13 VPWR VGND VPWR VGND sky130_ef_sc_hd__decap_12
X_340_ _090_ _156_ VGND VGND VPWR VPWR _091_ sky130_fd_sc_hd__and2b_1
X_271_ net7 _026_ VGND VGND VPWR VPWR _028_ sky130_fd_sc_hd__nor2_1
XFILLER_0_40_77 VGND VGND VPWR VPWR sky130_fd_sc_hd__decap_6
XFILLER_0_37_109 VGND VGND VPWR VPWR sky130_fd_sc_hd__decap_3
XFILLER_0_4_77 VGND VGND VPWR VPWR sky130_fd_sc_hd__decap_6
XFILLER_0_36_153 VPWR VGND VPWR VGND sky130_ef_sc_hd__decap_12
XFILLER_0_36_131 VGND VGND VPWR VPWR sky130_fd_sc_hd__decap_8
X_185_ _103_ net3 net4 _112_ VGND VGND VPWR VPWR _113_ sky130_fd_sc_hd__a22oi_4
X_323_ _104_ _153_ VGND VGND VPWR VPWR _076_ sky130_fd_sc_hd__nor2_1
X_254_ _107_ _010_ VGND VGND VPWR VPWR _012_ sky130_fd_sc_hd__nor2_2
XFILLER_0_10_58 VPWR VGND VPWR VGND sky130_ef_sc_hd__decap_12
XPHY_EDGE_ROW_41_Left_84 VGND VGND VPWR VPWR sky130_fd_sc_hd__decap_3
XFILLER_0_18_153 VPWR VGND VPWR VGND sky130_ef_sc_hd__decap_12
X_306_ _118_ _153_ _060_ VGND VGND VPWR VPWR _061_ sky130_fd_sc_hd__o21ai_1
XFILLER_0_24_189 VGND VGND VPWR VPWR sky130_fd_sc_hd__fill_1
XFILLER_0_24_112 VGND VGND VPWR VPWR sky130_fd_sc_hd__fill_2
XFILLER_0_21_57 VPWR VGND VPWR VGND sky130_ef_sc_hd__decap_12
X_237_ net13 _164_ VGND VGND VPWR VPWR _165_ sky130_fd_sc_hd__xnor2_2
XFILLER_0_30_104 VPWR VGND VPWR VGND sky130_ef_sc_hd__decap_12
XFILLER_0_15_189 VGND VGND VPWR VPWR sky130_fd_sc_hd__fill_1
XFILLER_0_15_167 VGND VGND VPWR VPWR sky130_fd_sc_hd__fill_1
XFILLER_0_32_23 VGND VGND VPWR VPWR sky130_fd_sc_hd__decap_4
XFILLER_0_8_109 VPWR VGND VPWR VGND sky130_ef_sc_hd__decap_12
XPHY_EDGE_ROW_1_Right_1 VGND VGND VPWR VPWR sky130_fd_sc_hd__decap_3
XFILLER_0_7_164 VGND VGND VPWR VPWR sky130_fd_sc_hd__decap_4
Xoutput26 net26 VGND VGND VPWR VPWR out[6] sky130_fd_sc_hd__clkbuf_4
XFILLER_0_4_145 VGND VGND VPWR VPWR sky130_fd_sc_hd__fill_1
XFILLER_0_30_3 VPWR VGND VPWR VGND sky130_ef_sc_hd__decap_12
XFILLER_0_4_189 VGND VGND VPWR VPWR sky130_fd_sc_hd__fill_1
XFILLER_0_7_33 VGND VGND VPWR VPWR sky130_fd_sc_hd__decap_3
XFILLER_0_13_69 VPWR VGND VPWR VGND sky130_ef_sc_hd__decap_12
XFILLER_0_13_25 VPWR VGND VPWR VGND sky130_ef_sc_hd__decap_12
XTAP_TAPCELL_ROW_20_149 VGND VPWR sky130_fd_sc_hd__tapvpwrvgnd_1
XFILLER_0_0_181 VGND VGND VPWR VPWR sky130_fd_sc_hd__decap_8
X_270_ net7 _026_ VGND VGND VPWR VPWR _027_ sky130_fd_sc_hd__and2_1
X_322_ _104_ _106_ _156_ _074_ VGND VGND VPWR VPWR _075_ sky130_fd_sc_hd__o22a_1
XFILLER_0_42_113 VPWR VGND VPWR VGND sky130_ef_sc_hd__decap_12
X_253_ _107_ _010_ VGND VGND VPWR VPWR _011_ sky130_fd_sc_hd__nand2_2
XFILLER_0_36_165 VPWR VGND VPWR VGND sky130_ef_sc_hd__decap_12
X_184_ net9 VGND VGND VPWR VPWR _112_ sky130_fd_sc_hd__buf_6
XFILLER_0_27_110 VGND VGND VPWR VPWR sky130_fd_sc_hd__fill_2
XFILLER_0_19_57 VPWR VGND VPWR VGND sky130_ef_sc_hd__decap_12
XFILLER_0_10_15 VPWR VGND VPWR VGND sky130_ef_sc_hd__decap_12
XFILLER_0_10_37 VGND VGND VPWR VPWR sky130_fd_sc_hd__fill_1
XFILLER_0_33_113 VPWR VGND VPWR VGND sky130_ef_sc_hd__decap_12
XFILLER_0_18_165 VPWR VGND VPWR VGND sky130_ef_sc_hd__decap_12
X_305_ net34 _118_ _155_ _059_ VGND VGND VPWR VPWR _060_ sky130_fd_sc_hd__a31o_1
XFILLER_0_21_69 VPWR VGND VPWR VGND sky130_ef_sc_hd__decap_12
X_236_ net11 net12 _162_ net32 VGND VGND VPWR VPWR _164_ sky130_fd_sc_hd__o31a_2
XFILLER_0_30_116 VGND VGND VPWR VPWR sky130_fd_sc_hd__decap_3
XFILLER_0_15_113 VPWR VGND VPWR VGND sky130_ef_sc_hd__decap_12
XFILLER_0_1_79 VPWR VGND VPWR VGND sky130_ef_sc_hd__decap_12
XFILLER_0_32_35 VGND VGND VPWR VPWR sky130_fd_sc_hd__fill_1
X_219_ _128_ _138_ _146_ VGND VGND VPWR VPWR _147_ sky130_fd_sc_hd__a21oi_2
Xoutput27 net27 VGND VGND VPWR VPWR out[7] sky130_fd_sc_hd__buf_2
XFILLER_0_7_110 VGND VGND VPWR VPWR sky130_fd_sc_hd__fill_2