*SPEF "ieee 1481-1999"
*DESIGN "inverter"
*DATE "15:19:08 Sunday April 27, 2025"
*VENDOR "The OpenROAD Project"
*PROGRAM "OpenROAD"
*VERSION "b16bda7e82721d10566ff7e2b68f1ff0be9f9e38"
*DESIGN_FLOW "NAME_SCOPE LOCAL" "PIN_CAP NONE"
*DIVIDER /
*DELIMITER :
*BUS_DELIMITER []
*T_UNIT 1 NS
*C_UNIT 1 PF
*R_UNIT 1 OHM
*L_UNIT 1 HENRY

*NAME_MAP
*3 in[0]
*4 in[1]
*5 in[2]
*6 in[3]
*7 in[4]
*8 in[5]
*9 in[6]
*10 in[7]
*11 out[0]
*12 out[1]
*13 out[2]
*14 out[3]
*15 out[4]
*16 out[5]
*17 out[6]
*18 out[7]
*19 net1
*20 net10
*21 net11
*22 net12
*23 net13
*24 net14
*25 net15
*26 net16
*27 net2
*28 net3
*29 net4
*30 net5
*31 net6
*32 net7
*33 net8
*34 net9
*35 FILLER_0_0_18
*36 FILLER_0_0_26
*37 FILLER_0_0_29
*38 FILLER_0_0_37
*39 FILLER_0_0_9
*40 FILLER_0_10_18
*41 FILLER_0_10_26
*42 FILLER_0_10_29
*43 FILLER_0_10_41
*44 FILLER_0_10_6
*45 FILLER_0_11_15
*46 FILLER_0_11_27
*47 FILLER_0_11_3
*48 FILLER_0_11_39
*49 FILLER_0_11_47
*50 FILLER_0_12_21
*51 FILLER_0_12_27
*52 FILLER_0_12_29
*53 FILLER_0_12_37
*54 FILLER_0_12_9
*55 FILLER_0_1_15
*56 FILLER_0_1_20
*57 FILLER_0_1_3
*58 FILLER_0_1_32
*59 FILLER_0_1_44
*60 FILLER_0_2_11
*61 FILLER_0_2_15
*62 FILLER_0_2_27
*63 FILLER_0_2_29
*64 FILLER_0_2_3
*65 FILLER_0_2_41
*66 FILLER_0_2_47
*67 FILLER_0_3_18
*68 FILLER_0_3_30
*69 FILLER_0_3_42
*70 FILLER_0_3_6
*71 FILLER_0_4_15
*72 FILLER_0_4_19
*73 FILLER_0_4_23
*74 FILLER_0_4_27
*75 FILLER_0_4_29
*76 FILLER_0_4_3
*77 FILLER_0_4_41
*78 FILLER_0_4_47
*79 FILLER_0_5_18
*80 FILLER_0_5_30
*81 FILLER_0_5_42
*82 FILLER_0_5_6
*83 FILLER_0_6_18
*84 FILLER_0_6_26
*85 FILLER_0_6_29
*86 FILLER_0_6_3
*87 FILLER_0_6_41
*88 FILLER_0_6_47
*89 FILLER_0_7_15
*90 FILLER_0_7_27
*91 FILLER_0_7_3
*92 FILLER_0_7_39
*93 FILLER_0_7_44
*94 FILLER_0_8_18
*95 FILLER_0_8_26
*96 FILLER_0_8_29
*97 FILLER_0_8_6
*98 FILLER_0_9_15
*99 FILLER_0_9_19
*100 FILLER_0_9_23
*101 FILLER_0_9_3
*102 FILLER_0_9_35
*103 FILLER_0_9_47
*104 PHY_EDGE_ROW_0_Left_13
*105 PHY_EDGE_ROW_0_Right_0
*106 PHY_EDGE_ROW_10_Left_23
*107 PHY_EDGE_ROW_10_Right_10
*108 PHY_EDGE_ROW_11_Left_24
*109 PHY_EDGE_ROW_11_Right_11
*110 PHY_EDGE_ROW_12_Left_25
*111 PHY_EDGE_ROW_12_Right_12
*112 PHY_EDGE_ROW_1_Left_14
*113 PHY_EDGE_ROW_1_Right_1
*114 PHY_EDGE_ROW_2_Left_15
*115 PHY_EDGE_ROW_2_Right_2
*116 PHY_EDGE_ROW_3_Left_16
*117 PHY_EDGE_ROW_3_Right_3
*118 PHY_EDGE_ROW_4_Left_17
*119 PHY_EDGE_ROW_4_Right_4
*120 PHY_EDGE_ROW_5_Left_18
*121 PHY_EDGE_ROW_5_Right_5
*122 PHY_EDGE_ROW_6_Left_19
*123 PHY_EDGE_ROW_6_Right_6
*124 PHY_EDGE_ROW_7_Left_20
*125 PHY_EDGE_ROW_7_Right_7
*126 PHY_EDGE_ROW_8_Left_21
*127 PHY_EDGE_ROW_8_Right_8
*128 PHY_EDGE_ROW_9_Left_22
*129 PHY_EDGE_ROW_9_Right_9
*130 TAP_TAPCELL_ROW_0_26
*131 TAP_TAPCELL_ROW_10_31
*132 TAP_TAPCELL_ROW_12_32
*133 TAP_TAPCELL_ROW_2_27
*134 TAP_TAPCELL_ROW_4_28
*135 TAP_TAPCELL_ROW_6_29
*136 TAP_TAPCELL_ROW_8_30
*137 _0_
*138 _1_
*139 _2_
*140 _3_
*141 _4_
*142 _5_
*143 _6_
*144 _7_
*145 input1
*146 input2
*147 input3
*148 input4
*149 input5
*150 input6
*151 input7
*152 input8
*153 output10
*154 output11
*155 output12
*156 output13
*157 output14
*158 output15
*159 output16
*160 output9

*PORTS
in[0] I
in[1] I
in[2] I
in[3] I
in[4] I
in[5] I
in[6] I
in[7] I
out[0] O
out[1] O
out[2] O
out[3] O
out[4] O
out[5] O
out[6] O
out[7] O

*D_NET *3 0.00114897
*CONN
*P in[0] I
*I *145:A I *D sky130_fd_sc_hd__buf_1
*CAP
1 in[0] 0.000574485
2 *145:A 0
3 *3:11 0.000574485
4 *3:11 *4:19 0
*RES
1 in[0] *3:11 31.4739 
2 *3:11 *145:A 23 
*END

*D_NET *4 0.000875402
*CONN
*P in[1] I
*I *146:A I *D sky130_fd_sc_hd__buf_1
*CAP
1 in[1] 0.000409348
2 *146:A 0
3 *4:19 0.000409348
4 *4:19 *147:A 0
5 *4:19 *19:8 5.67058e-05
6 *3:11 *4:19 0
*RES
1 in[1] *4:19 28.7327 
2 *4:19 *146:A 23 
*END

*D_NET *5 0.000615123
*CONN
*P in[2] I
*I *147:A I *D sky130_fd_sc_hd__clkbuf_1
*CAP
1 in[2] 0.000307562
2 *147:A 0.000307562
3 *147:A *6:17 0
4 *4:19 *147:A 0
*RES
1 in[2] *147:A 49.8062 
*END

*D_NET *6 0.000742726
*CONN
*P in[3] I
*I *148:A I *D sky130_fd_sc_hd__clkbuf_1
*CAP
1 in[3] 0.000371363
2 *148:A 0
3 *6:17 0.000371363
4 *6:17 *7:17 0
5 *6:17 *19:12 0
6 *6:17 *29:8 0
7 *147:A *6:17 0
*RES
1 in[3] *6:17 28.2148 
2 *6:17 *148:A 23 
*END

*D_NET *7 0.000650175
*CONN
*P in[4] I
*I *149:A I *D sky130_fd_sc_hd__clkbuf_1
*CAP
1 in[4] 0.000325087
2 *149:A 0
3 *7:17 0.000325087
4 *7:17 *8:17 0
5 *7:17 *19:12 0
6 *6:17 *7:17 0
*RES
1 in[4] *7:17 27.1584 
2 *7:17 *149:A 23 
*END

*D_NET *8 0.000761607
*CONN
*P in[5] I
*I *150:A I *D sky130_fd_sc_hd__clkbuf_1
*CAP
1 in[5] 0.000380803
2 *150:A 0
3 *8:17 0.000380803
4 *8:17 *151:A 0
5 *8:17 *19:12 0
6 *7:17 *8:17 0
*RES
1 in[5] *8:17 28.567 
2 *8:17 *150:A 23 
*END

*D_NET *9 0.000603153
*CONN
*P in[6] I
*I *151:A I *D sky130_fd_sc_hd__clkbuf_1
*CAP
1 in[6] 0.000301577
2 *151:A 0.000301577
3 *151:A *10:11 0
4 *8:17 *151:A 0
*RES
1 in[6] *151:A 49.8062 
*END

*D_NET *10 0.00130863
*CONN
*P in[7] I
*I *152:A I *D sky130_fd_sc_hd__buf_1
*CAP
1 in[7] 0.000648592
2 *152:A 0
3 *10:11 0.000648592
4 *10:11 *19:12 1.14452e-05
5 *151:A *10:11 0
*RES
1 in[7] *10:11 32.0837 
2 *10:11 *152:A 23 
*END

*D_NET *11 0.00123536
*CONN
*P out[0] O
*I *160:X O *D sky130_fd_sc_hd__buf_2
*CAP
1 out[0] 0.00029892
2 *160:X 0.000318757
3 *11:8 0.000617678
4 out[0] out[1] 0
*RES
1 *160:X *11:8 44.6596 
2 *11:8 out[0] 9.10133 
*END

*D_NET *12 0.00046494
*CONN
*P out[1] O
*I *153:X O *D sky130_fd_sc_hd__buf_2
*CAP
1 out[1] 0.00023247
2 *153:X 0.00023247
3 out[1] out[2] 0
4 out[0] out[1] 0
*RES
1 *153:X out[1] 47.0789 
*END

*D_NET *13 0.000467688
*CONN
*P out[2] O
*I *154:X O *D sky130_fd_sc_hd__buf_2
*CAP
1 out[2] 0.000227473
2 *154:X 0.000227473
3 out[2] out[3] 0
4 out[2] *21:10 1.27424e-05
5 out[1] out[2] 0
*RES
1 *154:X out[2] 47.0789 
*END

*D_NET *14 0.000645346
*CONN
*P out[3] O
*I *155:X O *D sky130_fd_sc_hd__buf_2
*CAP
1 out[3] 0.000289936
2 *155:X 0.000289936
3 out[3] out[4] 0
4 out[3] *22:12 6.54744e-05
5 out[2] out[3] 0
*RES
1 *155:X out[3] 48.4875 
*END

*D_NET *15 0.000463691
*CONN
*P out[4] O
*I *156:X O *D sky130_fd_sc_hd__buf_2
*CAP
1 out[4] 0.000231846
2 *156:X 0.000231846
3 out[4] out[5] 0
4 out[4] *26:12 0
5 out[3] out[4] 0
*RES
1 *156:X out[4] 47.0789 
*END

*D_NET *16 0.000626916
*CONN
*P out[5] O
*I *157:X O *D sky130_fd_sc_hd__buf_2
*CAP
1 out[5] 0.000313458
2 *157:X 0.000313458
3 out[5] out[6] 0
4 out[5] *26:12 0
5 out[4] out[5] 0
*RES
1 *157:X out[5] 48.4875 
*END

*D_NET *17 0.000841465
*CONN
*P out[6] O
*I *158:X O *D sky130_fd_sc_hd__buf_2
*CAP
1 out[6] 0.000420732
2 *158:X 0.000420732
3 out[6] out[7] 0
4 out[5] out[6] 0
*RES
1 *158:X out[6] 47.5941 
*END

*D_NET *18 0.00110166
*CONN
*P out[7] O
*I *159:X O *D sky130_fd_sc_hd__clkbuf_4
*CAP
1 out[7] 0.000175108
2 *159:X 0.000375724
3 *18:8 0.000550832
4 out[6] out[7] 0
*RES
1 *159:X *18:8 45.7161 
2 *18:8 out[7] 8.672 
*END

*D_NET *19 0.00566283
*CONN
*I *143:A I *D sky130_fd_sc_hd__inv_2
*I *145:X O *D sky130_fd_sc_hd__buf_1
*CAP
1 *143:A 0.000145312
2 *145:X 7.88413e-05
3 *19:12 0.00140142
4 *19:8 0.00133495
5 *143:A *32:10 1.34995e-05
6 *143:A *33:8 0.000322968
7 *19:12 *27:12 0.0021015
8 *19:12 *29:8 0.000196188
9 *19:12 *32:10 0
10 *4:19 *19:8 5.67058e-05
11 *6:17 *19:12 0
12 *7:17 *19:12 0
13 *8:17 *19:12 0
14 *10:11 *19:12 1.14452e-05
*RES
1 *145:X *19:8 39.0979 
2 *19:8 *19:12 48.2464 
3 *19:12 *143:A 26.9564 
*END

*D_NET *20 0.00505489
*CONN
*I *153:A I *D sky130_fd_sc_hd__buf_2
*I *144:Y O *D sky130_fd_sc_hd__inv_2
*CAP
1 *153:A 0
2 *144:Y 0.000733206
3 *20:16 0.00179424
4 *20:8 0.00252745
5 *20:16 *34:12 0
*RES
1 *144:Y *20:8 47.6736 
2 *20:8 *20:16 47.7907 
3 *20:16 *153:A 23 
*END

*D_NET *21 0.000790253
*CONN
*I *154:A I *D sky130_fd_sc_hd__buf_2
*I *137:Y O *D sky130_fd_sc_hd__inv_2
*CAP
1 *154:A 0
2 *137:Y 0.000311053
3 *21:10 0.000311053
4 *21:10 *156:A 8.4047e-05
5 *21:10 *28:12 7.1357e-05
6 *21:10 *34:12 0
7 out[2] *21:10 1.27424e-05
*RES
1 *137:Y *21:10 43.8207 
2 *21:10 *154:A 38 
*END

*D_NET *22 0.00296091
*CONN
*I *155:A I *D sky130_fd_sc_hd__buf_2
*I *138:Y O *D sky130_fd_sc_hd__inv_2
*CAP
1 *155:A 0
2 *138:Y 0.00111607
3 *22:12 0.000152686
4 *22:6 0.00126875
5 *22:12 *156:A 0.00035793
6 out[3] *22:12 6.54744e-05
*RES
1 *138:Y *22:6 36.485 
2 *22:6 *22:12 34.7229 
3 *22:12 *155:A 23 
*END

*D_NET *23 0.00336405
*CONN
*I *156:A I *D sky130_fd_sc_hd__buf_2
*I *139:Y O *D sky130_fd_sc_hd__inv_2
*CAP
1 *156:A 0.000348465
2 *139:Y 0.000839162
3 *23:8 0.00118763
4 *156:A *26:12 0.000357
5 *156:A *28:12 8.51225e-05
6 *156:A *33:14 4.42688e-05
7 *156:A *34:12 6.04233e-05
8 *21:10 *156:A 8.4047e-05
9 *22:12 *156:A 0.00035793
*RES
1 *139:Y *23:8 48.6264 
2 *23:8 *156:A 48.9786 
*END

*D_NET *24 0.00201762
*CONN
*I *157:A I *D sky130_fd_sc_hd__buf_2
*I *140:Y O *D sky130_fd_sc_hd__inv_2
*CAP
1 *157:A 8.63649e-05
2 *140:Y 0.000887261
3 *24:8 0.000973626
4 *157:A *26:12 7.03663e-05
*RES
1 *140:Y *24:8 49.1029 
2 *24:8 *157:A 39.9057 
*END

*D_NET *25 0.0017727
*CONN
*I *158:A I *D sky130_fd_sc_hd__buf_2
*I *141:Y O *D sky130_fd_sc_hd__inv_2
*CAP
1 *158:A 0
2 *141:Y 0.000856421
3 *25:10 0.000856421
4 *25:10 *26:12 0
5 *25:10 *33:14 6.7177e-06
6 *25:10 *34:12 5.31444e-05
*RES
1 *141:Y *25:10 49.9314 
2 *25:10 *158:A 38 
*END

*D_NET *26 0.00311857
*CONN
*I *159:A I *D sky130_fd_sc_hd__clkbuf_4
*I *142:Y O *D sky130_fd_sc_hd__inv_2
*CAP
1 *159:A 0
2 *142:Y 0
3 *26:12 0.000629663
4 *26:6 0.000629663
5 *26:12 *33:14 0.00143187
6 out[4] *26:12 0
7 out[5] *26:12 0
8 *156:A *26:12 0.000357
9 *157:A *26:12 7.03663e-05
10 *25:10 *26:12 0
*RES
1 *142:Y *26:6 38 
2 *26:6 *26:12 34.7821 
3 *26:12 *159:A 23 
*END

*D_NET *27 0.0043424
*CONN
*I *144:A I *D sky130_fd_sc_hd__inv_2
*I *146:X O *D sky130_fd_sc_hd__buf_1
*CAP
1 *144:A 0
2 *146:X 0
3 *27:12 0.00112045
4 *27:6 0.00112045
5 *19:12 *27:12 0.0021015
*RES
1 *146:X *27:6 38 
2 *27:6 *27:12 44.6629 
3 *27:12 *144:A 23 
*END

*D_NET *28 0.00356138
*CONN
*I *137:A I *D sky130_fd_sc_hd__inv_2
*I *147:X O *D sky130_fd_sc_hd__clkbuf_1
*CAP
1 *137:A 0
2 *147:X 0.00137688
3 *28:12 0.000134291
4 *28:6 0.00151117
5 *28:12 *34:12 0.000382555
6 *156:A *28:12 8.51225e-05
7 *21:10 *28:12 7.1357e-05
*RES
1 *147:X *28:6 40.2964 
2 *28:6 *28:12 35.075 
3 *28:12 *137:A 23 
*END

*D_NET *29 0.00117869
*CONN
*I *138:A I *D sky130_fd_sc_hd__inv_2
*I *148:X O *D sky130_fd_sc_hd__clkbuf_1
*CAP
1 *138:A 0.000295782
2 *148:X 0.000195468
3 *29:8 0.000491249
4 *6:17 *29:8 0
5 *19:12 *29:8 0.000196188
*RES
1 *148:X *29:8 43.075 
2 *29:8 *138:A 42.9093 
*END

*D_NET *30 0.0023572
*CONN
*I *139:A I *D sky130_fd_sc_hd__inv_2
*I *149:X O *D sky130_fd_sc_hd__clkbuf_1
*CAP
1 *139:A 0.000567113
2 *149:X 0.000611486
3 *30:8 0.0011786
*RES
1 *149:X *30:8 45.2914 
2 *30:8 *139:A 48.7093 
*END

*D_NET *31 0.00130894
*CONN
*I *140:A I *D sky130_fd_sc_hd__inv_2
*I *150:X O *D sky130_fd_sc_hd__clkbuf_1
*CAP
1 *140:A 0
2 *150:X 0.000654468
3 *31:10 0.000654468
*RES
1 *150:X *31:10 48.6057 
2 *31:10 *140:A 38 
*END

*D_NET *32 0.00131393
*CONN
*I *141:A I *D sky130_fd_sc_hd__inv_2
*I *151:X O *D sky130_fd_sc_hd__clkbuf_1
*CAP
1 *141:A 0
2 *151:X 0.000522411
3 *32:10 0.000522411
4 *32:10 *33:8 0.000197652
5 *32:10 *34:8 5.79559e-05
6 *143:A *32:10 1.34995e-05
7 *19:12 *32:10 0
*RES
1 *151:X *32:10 46.12 
2 *32:10 *141:A 38 
*END

*D_NET *33 0.00634196
*CONN
*I *142:A I *D sky130_fd_sc_hd__inv_2
*I *152:X O *D sky130_fd_sc_hd__buf_1
*CAP
1 *142:A 0
2 *152:X 0.000511082
3 *33:14 0.000385667
4 *33:8 0.000896749
5 *33:8 *34:8 0.00105751
6 *33:14 *34:12 0.00148747
7 *143:A *33:8 0.000322968
8 *156:A *33:14 4.42688e-05
9 *25:10 *33:14 6.7177e-06
10 *26:12 *33:14 0.00143187
11 *32:10 *33:8 0.000197652
*RES
1 *152:X *33:8 39.3643 
2 *33:8 *33:14 49.865 
3 *33:14 *142:A 23 
*END

*D_NET *34 0.00663298
*CONN
*I *160:A I *D sky130_fd_sc_hd__buf_2
*I *143:Y O *D sky130_fd_sc_hd__inv_2
*CAP
1 *160:A 0
2 *143:Y 0.000459619
3 *34:12 0.00130734
4 *34:8 0.00176696
5 *156:A *34:12 6.04233e-05
6 *20:16 *34:12 0
7 *21:10 *34:12 0
8 *25:10 *34:12 5.31444e-05
9 *28:12 *34:12 0.000382555
10 *32:10 *34:8 5.79559e-05
11 *33:8 *34:8 0.00105751
12 *33:14 *34:12 0.00148747
*RES
1 *143:Y *34:8 49.5793 
2 *34:8 *34:12 48.2464 
3 *34:12 *160:A 23 
*END
