*SPEF "ieee 1481-1999"
*DESIGN "alu"
*DATE "16:05:36 Sunday April 27, 2025"
*VENDOR "The OpenROAD Project"
*PROGRAM "OpenROAD"
*VERSION "b16bda7e82721d10566ff7e2b68f1ff0be9f9e38"
*DESIGN_FLOW "NAME_SCOPE LOCAL" "PIN_CAP NONE"
*DIVIDER /
*DELIMITER :
*BUS_DELIMITER []
*T_UNIT 1 NS
*C_UNIT 1 PF
*R_UNIT 1 OHM
*L_UNIT 1 HENRY

*NAME_MAP
*1 A[0]
*2 A[1]
*3 A[2]
*4 A[3]
*5 A[4]
*6 A[5]
*7 A[6]
*8 A[7]
*9 B[0]
*10 B[1]
*11 B[2]
*12 B[3]
*13 B[4]
*14 B[5]
*15 B[6]
*16 B[7]
*19 opcode[0]
*20 opcode[1]
*21 opcode[2]
*22 out[0]
*23 out[1]
*24 out[2]
*25 out[3]
*26 out[4]
*27 out[5]
*28 out[6]
*29 out[7]
*30 _000_
*31 _001_
*32 _002_
*33 _003_
*34 _004_
*35 _005_
*36 _006_
*37 _007_
*38 _008_
*39 _009_
*40 _010_
*41 _011_
*42 _012_
*43 _013_
*44 _014_
*45 _015_
*46 _016_
*47 _017_
*48 _018_
*49 _019_
*50 _020_
*51 _021_
*52 _022_
*53 _023_
*54 _024_
*55 _025_
*56 _026_
*57 _027_
*58 _028_
*59 _029_
*60 _030_
*61 _031_
*62 _032_
*63 _033_
*64 _034_
*65 _035_
*66 _036_
*67 _037_
*68 _038_
*69 _039_
*70 _040_
*71 _041_
*72 _042_
*73 _043_
*74 _044_
*75 _045_
*76 _046_
*77 _047_
*78 _048_
*79 _049_
*80 _050_
*81 _051_
*82 _052_
*83 _053_
*84 _054_
*85 _055_
*86 _056_
*87 _057_
*88 _058_
*89 _059_
*90 _060_
*91 _061_
*92 _062_
*93 _063_
*94 _064_
*95 _065_
*96 _066_
*97 _067_
*98 _068_
*99 _069_
*100 _070_
*101 _071_
*102 _072_
*103 _073_
*104 _074_
*105 _075_
*106 _076_
*107 _077_
*108 _078_
*109 _079_
*110 _080_
*111 _081_
*112 _082_
*113 _083_
*114 _084_
*115 _085_
*116 _086_
*117 _087_
*118 _088_
*119 _089_
*120 _090_
*121 _091_
*122 _092_
*123 _093_
*124 _094_
*125 _095_
*126 _096_
*127 _097_
*128 _098_
*129 _099_
*130 _100_
*131 _101_
*132 _102_
*133 _103_
*134 _104_
*135 _105_
*136 _106_
*137 _107_
*138 _108_
*139 _109_
*140 _110_
*141 _111_
*142 _112_
*143 _113_
*144 _114_
*145 _115_
*146 _116_
*147 _117_
*148 _118_
*149 _119_
*150 _120_
*151 _121_
*152 _122_
*153 _123_
*154 _124_
*155 _125_
*156 _126_
*157 _127_
*158 _128_
*159 _129_
*160 _130_
*161 _131_
*162 _132_
*163 _133_
*164 _134_
*165 _135_
*166 _136_
*167 _137_
*168 _138_
*169 _139_
*170 _140_
*171 _141_
*172 _142_
*173 _143_
*174 _144_
*175 _145_
*176 _146_
*177 _147_
*178 _148_
*179 _149_
*180 _150_
*181 _151_
*182 _152_
*183 _153_
*184 _154_
*185 _155_
*186 _156_
*187 _157_
*188 _158_
*189 _159_
*190 _160_
*191 _161_
*192 _162_
*193 _163_
*194 _164_
*195 _165_
*196 _166_
*197 _167_
*198 _168_
*199 _169_
*200 net1
*201 net10
*202 net11
*203 net12
*204 net13
*205 net14
*206 net15
*207 net16
*208 net17
*209 net18
*210 net19
*211 net2
*212 net20
*213 net21
*214 net22
*215 net23
*216 net24
*217 net25
*218 net26
*219 net27
*220 net28
*221 net29
*222 net3
*223 net30
*224 net31
*225 net32
*226 net33
*227 net34
*228 net4
*229 net5
*230 net6
*231 net7
*232 net8
*233 net9
*234 ANTENNA_1
*235 ANTENNA_2
*236 FILLER_0_0_109
*237 FILLER_0_0_113
*238 FILLER_0_0_125
*239 FILLER_0_0_137
*240 FILLER_0_0_141
*241 FILLER_0_0_153
*242 FILLER_0_0_165
*243 FILLER_0_0_169
*244 FILLER_0_0_181
*245 FILLER_0_0_189
*246 FILLER_0_0_19
*247 FILLER_0_0_27
*248 FILLER_0_0_29
*249 FILLER_0_0_41
*250 FILLER_0_0_53
*251 FILLER_0_0_57
*252 FILLER_0_0_69
*253 FILLER_0_0_7
*254 FILLER_0_0_81
*255 FILLER_0_0_85
*256 FILLER_0_0_97
*257 FILLER_0_10_109
*258 FILLER_0_10_121
*259 FILLER_0_10_133
*260 FILLER_0_10_139
*261 FILLER_0_10_141
*262 FILLER_0_10_15
*263 FILLER_0_10_152
*264 FILLER_0_10_171
*265 FILLER_0_10_183
*266 FILLER_0_10_189
*267 FILLER_0_10_27
*268 FILLER_0_10_29
*269 FILLER_0_10_3
*270 FILLER_0_10_37
*271 FILLER_0_10_58
*272 FILLER_0_10_70
*273 FILLER_0_10_78
*274 FILLER_0_10_85
*275 FILLER_0_10_97
*276 FILLER_0_11_106
*277 FILLER_0_11_121
*278 FILLER_0_11_125
*279 FILLER_0_11_136
*280 FILLER_0_11_148
*281 FILLER_0_11_15
*282 FILLER_0_11_160
*283 FILLER_0_11_169
*284 FILLER_0_11_175
*285 FILLER_0_11_187
*286 FILLER_0_11_27
*287 FILLER_0_11_3
*288 FILLER_0_11_39
*289 FILLER_0_11_51
*290 FILLER_0_11_55
*291 FILLER_0_11_57
*292 FILLER_0_11_69
*293 FILLER_0_11_82
*294 FILLER_0_11_94
*295 FILLER_0_12_111
*296 FILLER_0_12_136
*297 FILLER_0_12_141
*298 FILLER_0_12_153
*299 FILLER_0_12_165
*300 FILLER_0_12_177
*301 FILLER_0_12_189
*302 FILLER_0_12_19
*303 FILLER_0_12_27
*304 FILLER_0_12_29
*305 FILLER_0_12_41
*306 FILLER_0_12_53
*307 FILLER_0_12_61
*308 FILLER_0_12_7
*309 FILLER_0_12_70
*310 FILLER_0_12_82
*311 FILLER_0_12_85
*312 FILLER_0_12_97
*313 FILLER_0_13_105
*314 FILLER_0_13_126
*315 FILLER_0_13_13
*316 FILLER_0_13_138
*317 FILLER_0_13_148
*318 FILLER_0_13_160
*319 FILLER_0_13_169
*320 FILLER_0_13_177
*321 FILLER_0_13_25
*322 FILLER_0_13_3
*323 FILLER_0_13_37
*324 FILLER_0_13_49
*325 FILLER_0_13_55
*326 FILLER_0_13_57
*327 FILLER_0_13_69
*328 FILLER_0_13_81
*329 FILLER_0_13_93
*330 FILLER_0_14_111
*331 FILLER_0_14_123
*332 FILLER_0_14_135
*333 FILLER_0_14_139
*334 FILLER_0_14_141
*335 FILLER_0_14_152
*336 FILLER_0_14_164
*337 FILLER_0_14_173
*338 FILLER_0_14_185
*339 FILLER_0_14_189
*340 FILLER_0_14_19
*341 FILLER_0_14_27
*342 FILLER_0_14_34
*343 FILLER_0_14_46
*344 FILLER_0_14_58
*345 FILLER_0_14_7
*346 FILLER_0_14_70
*347 FILLER_0_14_82
*348 FILLER_0_14_85
*349 FILLER_0_14_99
*350 FILLER_0_15_106
*351 FILLER_0_15_113
*352 FILLER_0_15_125
*353 FILLER_0_15_137
*354 FILLER_0_15_147
*355 FILLER_0_15_159
*356 FILLER_0_15_167
*357 FILLER_0_15_169
*358 FILLER_0_15_181
*359 FILLER_0_15_189
*360 FILLER_0_15_19
*361 FILLER_0_15_3
*362 FILLER_0_15_31
*363 FILLER_0_15_43
*364 FILLER_0_15_55
*365 FILLER_0_15_57
*366 FILLER_0_15_69
*367 FILLER_0_15_82
*368 FILLER_0_15_94
*369 FILLER_0_16_101
*370 FILLER_0_16_107
*371 FILLER_0_16_111
*372 FILLER_0_16_123
*373 FILLER_0_16_131
*374 FILLER_0_16_137
*375 FILLER_0_16_141
*376 FILLER_0_16_15
*377 FILLER_0_16_153
*378 FILLER_0_16_161
*379 FILLER_0_16_170
*380 FILLER_0_16_182
*381 FILLER_0_16_27
*382 FILLER_0_16_29
*383 FILLER_0_16_3
*384 FILLER_0_16_41
*385 FILLER_0_16_53
*386 FILLER_0_16_61
*387 FILLER_0_16_73
*388 FILLER_0_16_81
*389 FILLER_0_16_89
*390 FILLER_0_17_105
*391 FILLER_0_17_111
*392 FILLER_0_17_113
*393 FILLER_0_17_125
*394 FILLER_0_17_137
*395 FILLER_0_17_149
*396 FILLER_0_17_161
*397 FILLER_0_17_167
*398 FILLER_0_17_18
*399 FILLER_0_17_180
*400 FILLER_0_17_188
*401 FILLER_0_17_30
*402 FILLER_0_17_42
*403 FILLER_0_17_54
*404 FILLER_0_17_57
*405 FILLER_0_17_6
*406 FILLER_0_17_69
*407 FILLER_0_17_81
*408 FILLER_0_17_93
*409 FILLER_0_18_105
*410 FILLER_0_18_111
*411 FILLER_0_18_129
*412 FILLER_0_18_137
*413 FILLER_0_18_141
*414 FILLER_0_18_15
*415 FILLER_0_18_153
*416 FILLER_0_18_165
*417 FILLER_0_18_177
*418 FILLER_0_18_181
*419 FILLER_0_18_19
*420 FILLER_0_18_26
*421 FILLER_0_18_29
*422 FILLER_0_18_3
*423 FILLER_0_18_41
*424 FILLER_0_18_53
*425 FILLER_0_18_65
*426 FILLER_0_18_81
*427 FILLER_0_18_85
*428 FILLER_0_18_93
*429 FILLER_0_18_97
*430 FILLER_0_19_110
*431 FILLER_0_19_120
*432 FILLER_0_19_135
*433 FILLER_0_19_147
*434 FILLER_0_19_159
*435 FILLER_0_19_165
*436 FILLER_0_19_169
*437 FILLER_0_19_181
*438 FILLER_0_19_185
*439 FILLER_0_19_19
*440 FILLER_0_19_31
*441 FILLER_0_19_43
*442 FILLER_0_19_55
*443 FILLER_0_19_57
*444 FILLER_0_19_69
*445 FILLER_0_19_7
*446 FILLER_0_19_76
*447 FILLER_0_19_88
*448 FILLER_0_19_92
*449 FILLER_0_19_98
*450 FILLER_0_1_103
*451 FILLER_0_1_111
*452 FILLER_0_1_120
*453 FILLER_0_1_132
*454 FILLER_0_1_144
*455 FILLER_0_1_15
*456 FILLER_0_1_156
*457 FILLER_0_1_169
*458 FILLER_0_1_181
*459 FILLER_0_1_185
*460 FILLER_0_1_27
*461 FILLER_0_1_3
*462 FILLER_0_1_39
*463 FILLER_0_1_51
*464 FILLER_0_1_55
*465 FILLER_0_1_74
*466 FILLER_0_1_79
*467 FILLER_0_1_91
*468 FILLER_0_20_109
*469 FILLER_0_20_121
*470 FILLER_0_20_133
*471 FILLER_0_20_139
*472 FILLER_0_20_141
*473 FILLER_0_20_15
*474 FILLER_0_20_153
*475 FILLER_0_20_165
*476 FILLER_0_20_177
*477 FILLER_0_20_189
*478 FILLER_0_20_27
*479 FILLER_0_20_29
*480 FILLER_0_20_3
*481 FILLER_0_20_41
*482 FILLER_0_20_49
*483 FILLER_0_20_65
*484 FILLER_0_20_74
*485 FILLER_0_20_82
*486 FILLER_0_20_85
*487 FILLER_0_20_97
*488 FILLER_0_21_111
*489 FILLER_0_21_113
*490 FILLER_0_21_122
*491 FILLER_0_21_134
*492 FILLER_0_21_146
*493 FILLER_0_21_158
*494 FILLER_0_21_166
*495 FILLER_0_21_169
*496 FILLER_0_21_181
*497 FILLER_0_21_189
*498 FILLER_0_21_19
*499 FILLER_0_21_32
*500 FILLER_0_21_40
*501 FILLER_0_21_48
*502 FILLER_0_21_57
*503 FILLER_0_21_69
*504 FILLER_0_21_7
*505 FILLER_0_21_81
*506 FILLER_0_21_86
*507 FILLER_0_22_109
*508 FILLER_0_22_12
*509 FILLER_0_22_121
*510 FILLER_0_22_133
*511 FILLER_0_22_139
*512 FILLER_0_22_141
*513 FILLER_0_22_153
*514 FILLER_0_22_165
*515 FILLER_0_22_169
*516 FILLER_0_22_177
*517 FILLER_0_22_189
*518 FILLER_0_22_24
*519 FILLER_0_22_29
*520 FILLER_0_22_3
*521 FILLER_0_22_57
*522 FILLER_0_22_69
*523 FILLER_0_22_81
*524 FILLER_0_22_85
*525 FILLER_0_22_97
*526 FILLER_0_23_105
*527 FILLER_0_23_111
*528 FILLER_0_23_126
*529 FILLER_0_23_138
*530 FILLER_0_23_15
*531 FILLER_0_23_150
*532 FILLER_0_23_162
*533 FILLER_0_23_169
*534 FILLER_0_23_181
*535 FILLER_0_23_189
*536 FILLER_0_23_27
*537 FILLER_0_23_3
*538 FILLER_0_23_39
*539 FILLER_0_23_51
*540 FILLER_0_23_55
*541 FILLER_0_23_69
*542 FILLER_0_23_81
*543 FILLER_0_23_93
*544 FILLER_0_24_103
*545 FILLER_0_24_112
*546 FILLER_0_24_117
*547 FILLER_0_24_129
*548 FILLER_0_24_137
*549 FILLER_0_24_141
*550 FILLER_0_24_153
*551 FILLER_0_24_165
*552 FILLER_0_24_177
*553 FILLER_0_24_189
*554 FILLER_0_24_19
*555 FILLER_0_24_27
*556 FILLER_0_24_29
*557 FILLER_0_24_41
*558 FILLER_0_24_53
*559 FILLER_0_24_65
*560 FILLER_0_24_69
*561 FILLER_0_24_7
*562 FILLER_0_24_74
*563 FILLER_0_24_82
*564 FILLER_0_24_85
*565 FILLER_0_24_97
*566 FILLER_0_25_105
*567 FILLER_0_25_111
*568 FILLER_0_25_113
*569 FILLER_0_25_130
*570 FILLER_0_25_142
*571 FILLER_0_25_15
*572 FILLER_0_25_154
*573 FILLER_0_25_166
*574 FILLER_0_25_169
*575 FILLER_0_25_181
*576 FILLER_0_25_185
*577 FILLER_0_25_27
*578 FILLER_0_25_3
*579 FILLER_0_25_39
*580 FILLER_0_25_50
*581 FILLER_0_25_62
*582 FILLER_0_25_74
*583 FILLER_0_25_80
*584 FILLER_0_25_87
*585 FILLER_0_25_93
*586 FILLER_0_26_106
*587 FILLER_0_26_118
*588 FILLER_0_26_130
*589 FILLER_0_26_138
*590 FILLER_0_26_141
*591 FILLER_0_26_15
*592 FILLER_0_26_153
*593 FILLER_0_26_161
*594 FILLER_0_26_170
*595 FILLER_0_26_182
*596 FILLER_0_26_27
*597 FILLER_0_26_29
*598 FILLER_0_26_3
*599 FILLER_0_26_38
*600 FILLER_0_26_50
*601 FILLER_0_26_62
*602 FILLER_0_26_74
*603 FILLER_0_26_82
*604 FILLER_0_26_85
*605 FILLER_0_26_94
*606 FILLER_0_27_110
*607 FILLER_0_27_113
*608 FILLER_0_27_125
*609 FILLER_0_27_137
*610 FILLER_0_27_149
*611 FILLER_0_27_163
*612 FILLER_0_27_167
*613 FILLER_0_27_169
*614 FILLER_0_27_180
*615 FILLER_0_27_188
*616 FILLER_0_27_19
*617 FILLER_0_27_31
*618 FILLER_0_27_54
*619 FILLER_0_27_63
*620 FILLER_0_27_7
*621 FILLER_0_27_75
*622 FILLER_0_27_87
*623 FILLER_0_27_99
*624 FILLER_0_28_100
*625 FILLER_0_28_112
*626 FILLER_0_28_124
*627 FILLER_0_28_131
*628 FILLER_0_28_139
*629 FILLER_0_28_141
*630 FILLER_0_28_15
*631 FILLER_0_28_153
*632 FILLER_0_28_165
*633 FILLER_0_28_177
*634 FILLER_0_28_189
*635 FILLER_0_28_27
*636 FILLER_0_28_29
*637 FILLER_0_28_3
*638 FILLER_0_28_41
*639 FILLER_0_28_53
*640 FILLER_0_28_65
*641 FILLER_0_28_77
*642 FILLER_0_28_83
*643 FILLER_0_28_88
*644 FILLER_0_29_106
*645 FILLER_0_29_113
*646 FILLER_0_29_125
*647 FILLER_0_29_137
*648 FILLER_0_29_149
*649 FILLER_0_29_161
*650 FILLER_0_29_167
*651 FILLER_0_29_169
*652 FILLER_0_29_181
*653 FILLER_0_29_189
*654 FILLER_0_29_19
*655 FILLER_0_29_31
*656 FILLER_0_29_43
*657 FILLER_0_29_55
*658 FILLER_0_29_57
*659 FILLER_0_29_63
*660 FILLER_0_29_7
*661 FILLER_0_29_70
*662 FILLER_0_29_82
*663 FILLER_0_29_94
*664 FILLER_0_2_105
*665 FILLER_0_2_110
*666 FILLER_0_2_12
*667 FILLER_0_2_122
*668 FILLER_0_2_134
*669 FILLER_0_2_141
*670 FILLER_0_2_149
*671 FILLER_0_2_157
*672 FILLER_0_2_169
*673 FILLER_0_2_181
*674 FILLER_0_2_189
*675 FILLER_0_2_24
*676 FILLER_0_2_29
*677 FILLER_0_2_41
*678 FILLER_0_2_53
*679 FILLER_0_2_61
*680 FILLER_0_2_73
*681 FILLER_0_2_81
*682 FILLER_0_2_85
*683 FILLER_0_2_97
*684 FILLER_0_30_104
*685 FILLER_0_30_116
*686 FILLER_0_30_123
*687 FILLER_0_30_135
*688 FILLER_0_30_139
*689 FILLER_0_30_141
*690 FILLER_0_30_15
*691 FILLER_0_30_153
*692 FILLER_0_30_165
*693 FILLER_0_30_174
*694 FILLER_0_30_186
*695 FILLER_0_30_27
*696 FILLER_0_30_3
*697 FILLER_0_30_39
*698 FILLER_0_30_47
*699 FILLER_0_30_65
*700 FILLER_0_30_77
*701 FILLER_0_30_82
*702 FILLER_0_30_85
*703 FILLER_0_30_92
*704 FILLER_0_31_103
*705 FILLER_0_31_111
*706 FILLER_0_31_113
*707 FILLER_0_31_125
*708 FILLER_0_31_137
*709 FILLER_0_31_149
*710 FILLER_0_31_15
*711 FILLER_0_31_161
*712 FILLER_0_31_167
*713 FILLER_0_31_169
*714 FILLER_0_31_180
*715 FILLER_0_31_27
*716 FILLER_0_31_3
*717 FILLER_0_31_39
*718 FILLER_0_31_51
*719 FILLER_0_31_55
*720 FILLER_0_31_67
*721 FILLER_0_31_79
*722 FILLER_0_31_91
*723 FILLER_0_32_11
*724 FILLER_0_32_111
*725 FILLER_0_32_127
*726 FILLER_0_32_139
*727 FILLER_0_32_141
*728 FILLER_0_32_153
*729 FILLER_0_32_165
*730 FILLER_0_32_174
*731 FILLER_0_32_186
*732 FILLER_0_32_23
*733 FILLER_0_32_27
*734 FILLER_0_32_29
*735 FILLER_0_32_35
*736 FILLER_0_32_43
*737 FILLER_0_32_55
*738 FILLER_0_32_72
*739 FILLER_0_32_88
*740 FILLER_0_32_96
*741 FILLER_0_33_105
*742 FILLER_0_33_111
*743 FILLER_0_33_113
*744 FILLER_0_33_125
*745 FILLER_0_33_137
*746 FILLER_0_33_162
*747 FILLER_0_33_169
*748 FILLER_0_33_22
*749 FILLER_0_33_3
*750 FILLER_0_33_37
*751 FILLER_0_33_45
*752 FILLER_0_33_49
*753 FILLER_0_33_55
*754 FILLER_0_33_57
*755 FILLER_0_33_69
*756 FILLER_0_33_81
*757 FILLER_0_33_93
*758 FILLER_0_34_109
*759 FILLER_0_34_118
*760 FILLER_0_34_130
*761 FILLER_0_34_141
*762 FILLER_0_34_153
*763 FILLER_0_34_168
*764 FILLER_0_34_19
*765 FILLER_0_34_27
*766 FILLER_0_34_29
*767 FILLER_0_34_41
*768 FILLER_0_34_53
*769 FILLER_0_34_65
*770 FILLER_0_34_7
*771 FILLER_0_34_77
*772 FILLER_0_34_83
*773 FILLER_0_34_85
*774 FILLER_0_34_97
*775 FILLER_0_35_102
*776 FILLER_0_35_110
*777 FILLER_0_35_113
*778 FILLER_0_35_125
*779 FILLER_0_35_137
*780 FILLER_0_35_149
*781 FILLER_0_35_15
*782 FILLER_0_35_161
*783 FILLER_0_35_167
*784 FILLER_0_35_169
*785 FILLER_0_35_182
*786 FILLER_0_35_27
*787 FILLER_0_35_3
*788 FILLER_0_35_38
*789 FILLER_0_35_53
*790 FILLER_0_35_57
*791 FILLER_0_35_65
*792 FILLER_0_35_72
*793 FILLER_0_35_84
*794 FILLER_0_35_96
*795 FILLER_0_36_119
*796 FILLER_0_36_131
*797 FILLER_0_36_139
*798 FILLER_0_36_141
*799 FILLER_0_36_15
*800 FILLER_0_36_153
*801 FILLER_0_36_165
*802 FILLER_0_36_177
*803 FILLER_0_36_189
*804 FILLER_0_36_27
*805 FILLER_0_36_29
*806 FILLER_0_36_3
*807 FILLER_0_36_41
*808 FILLER_0_36_53
*809 FILLER_0_36_65
*810 FILLER_0_36_72
*811 FILLER_0_37_101
*812 FILLER_0_37_109
*813 FILLER_0_37_113
*814 FILLER_0_37_123
*815 FILLER_0_37_135
*816 FILLER_0_37_147
*817 FILLER_0_37_159
*818 FILLER_0_37_167
*819 FILLER_0_37_169
*820 FILLER_0_37_17
*821 FILLER_0_37_181
*822 FILLER_0_37_185
*823 FILLER_0_37_32
*824 FILLER_0_37_44
*825 FILLER_0_37_57
*826 FILLER_0_37_69
*827 FILLER_0_37_7
*828 FILLER_0_37_81
*829 FILLER_0_37_93
*830 FILLER_0_38_109
*831 FILLER_0_38_121
*832 FILLER_0_38_133
*833 FILLER_0_38_139
*834 FILLER_0_38_141
*835 FILLER_0_38_153
*836 FILLER_0_38_165
*837 FILLER_0_38_177
*838 FILLER_0_38_189
*839 FILLER_0_38_21
*840 FILLER_0_38_27
*841 FILLER_0_38_29
*842 FILLER_0_38_37
*843 FILLER_0_38_41
*844 FILLER_0_38_47
*845 FILLER_0_38_59
*846 FILLER_0_38_67
*847 FILLER_0_38_79
*848 FILLER_0_38_83
*849 FILLER_0_38_85
*850 FILLER_0_38_9
*851 FILLER_0_38_97
*852 FILLER_0_39_101
*853 FILLER_0_39_109
*854 FILLER_0_39_113
*855 FILLER_0_39_125
*856 FILLER_0_39_137
*857 FILLER_0_39_149
*858 FILLER_0_39_159
*859 FILLER_0_39_167
*860 FILLER_0_39_169
*861 FILLER_0_39_181
*862 FILLER_0_39_188
*863 FILLER_0_39_21
*864 FILLER_0_39_33
*865 FILLER_0_39_57
*866 FILLER_0_39_69
*867 FILLER_0_39_89
*868 FILLER_0_39_9
*869 FILLER_0_3_107
*870 FILLER_0_3_111
*871 FILLER_0_3_113
*872 FILLER_0_3_125
*873 FILLER_0_3_137
*874 FILLER_0_3_149
*875 FILLER_0_3_16
*876 FILLER_0_3_161
*877 FILLER_0_3_167
*878 FILLER_0_3_169
*879 FILLER_0_3_181
*880 FILLER_0_3_189
*881 FILLER_0_3_26
*882 FILLER_0_3_38
*883 FILLER_0_3_50
*884 FILLER_0_3_57
*885 FILLER_0_3_63
*886 FILLER_0_3_71
*887 FILLER_0_3_8
*888 FILLER_0_3_83
*889 FILLER_0_3_95
*890 FILLER_0_40_110
*891 FILLER_0_40_118
*892 FILLER_0_40_125
*893 FILLER_0_40_137
*894 FILLER_0_40_141
*895 FILLER_0_40_15
*896 FILLER_0_40_153
*897 FILLER_0_40_168
*898 FILLER_0_40_180
*899 FILLER_0_40_188
*900 FILLER_0_40_27
*901 FILLER_0_40_29
*902 FILLER_0_40_3
*903 FILLER_0_40_41
*904 FILLER_0_40_53
*905 FILLER_0_40_65
*906 FILLER_0_40_77
*907 FILLER_0_40_83
*908 FILLER_0_40_98
*909 FILLER_0_41_105
*910 FILLER_0_41_111
*911 FILLER_0_41_113
*912 FILLER_0_41_12
*913 FILLER_0_41_126
*914 FILLER_0_41_138
*915 FILLER_0_41_150
*916 FILLER_0_41_161
*917 FILLER_0_41_167
*918 FILLER_0_41_169
*919 FILLER_0_41_181
*920 FILLER_0_41_189
*921 FILLER_0_41_24
*922 FILLER_0_41_3
*923 FILLER_0_41_32
*924 FILLER_0_41_36
*925 FILLER_0_41_48
*926 FILLER_0_41_57
*927 FILLER_0_41_69
*928 FILLER_0_41_81
*929 FILLER_0_41_93
*930 FILLER_0_42_109
*931 FILLER_0_42_113
*932 FILLER_0_42_125
*933 FILLER_0_42_13
*934 FILLER_0_42_137
*935 FILLER_0_42_141
*936 FILLER_0_42_153
*937 FILLER_0_42_165
*938 FILLER_0_42_176
*939 FILLER_0_42_184
*940 FILLER_0_42_25
*941 FILLER_0_42_29
*942 FILLER_0_42_41
*943 FILLER_0_42_53
*944 FILLER_0_42_57
*945 FILLER_0_42_68
*946 FILLER_0_42_80
*947 FILLER_0_42_85
*948 FILLER_0_42_97
*949 FILLER_0_4_109
*950 FILLER_0_4_121
*951 FILLER_0_4_133
*952 FILLER_0_4_139
*953 FILLER_0_4_141
*954 FILLER_0_4_145
*955 FILLER_0_4_149
*956 FILLER_0_4_16
*957 FILLER_0_4_161
*958 FILLER_0_4_173
*959 FILLER_0_4_185
*960 FILLER_0_4_189
*961 FILLER_0_4_29
*962 FILLER_0_4_41
*963 FILLER_0_4_53
*964 FILLER_0_4_65
*965 FILLER_0_4_77
*966 FILLER_0_4_83
*967 FILLER_0_4_85
*968 FILLER_0_4_97
*969 FILLER_0_5_105
*970 FILLER_0_5_113
*971 FILLER_0_5_126
*972 FILLER_0_5_138
*973 FILLER_0_5_150
*974 FILLER_0_5_162
*975 FILLER_0_5_169
*976 FILLER_0_5_183
*977 FILLER_0_5_189
*978 FILLER_0_5_19
*979 FILLER_0_5_31
*980 FILLER_0_5_43
*981 FILLER_0_5_55
*982 FILLER_0_5_57
*983 FILLER_0_5_69
*984 FILLER_0_5_7
*985 FILLER_0_5_81
*986 FILLER_0_5_89
*987 FILLER_0_5_97
*988 FILLER_0_6_109
*989 FILLER_0_6_121
*990 FILLER_0_6_133
*991 FILLER_0_6_139
*992 FILLER_0_6_15
*993 FILLER_0_6_152
*994 FILLER_0_6_164
*995 FILLER_0_6_176
*996 FILLER_0_6_24
*997 FILLER_0_6_3
*998 FILLER_0_6_32
*999 FILLER_0_6_38
*1000 FILLER_0_6_44
*1001 FILLER_0_6_68
*1002 FILLER_0_6_74
*1003 FILLER_0_6_85
*1004 FILLER_0_6_97
*1005 FILLER_0_7_102
*1006 FILLER_0_7_110
*1007 FILLER_0_7_113
*1008 FILLER_0_7_125
*1009 FILLER_0_7_137
*1010 FILLER_0_7_152
*1011 FILLER_0_7_164
*1012 FILLER_0_7_169
*1013 FILLER_0_7_177
*1014 FILLER_0_7_189
*1015 FILLER_0_7_21
*1016 FILLER_0_7_33
*1017 FILLER_0_7_53
*1018 FILLER_0_7_57
*1019 FILLER_0_7_65
*1020 FILLER_0_7_9
*1021 FILLER_0_8_109
*1022 FILLER_0_8_121
*1023 FILLER_0_8_133
*1024 FILLER_0_8_139
*1025 FILLER_0_8_141
*1026 FILLER_0_8_15
*1027 FILLER_0_8_153
*1028 FILLER_0_8_165
*1029 FILLER_0_8_177
*1030 FILLER_0_8_189
*1031 FILLER_0_8_27
*1032 FILLER_0_8_29
*1033 FILLER_0_8_3
*1034 FILLER_0_8_37
*1035 FILLER_0_8_45
*1036 FILLER_0_8_57
*1037 FILLER_0_8_69
*1038 FILLER_0_8_81
*1039 FILLER_0_8_85
*1040 FILLER_0_8_97
*1041 FILLER_0_9_111
*1042 FILLER_0_9_113
*1043 FILLER_0_9_12
*1044 FILLER_0_9_125
*1045 FILLER_0_9_137
*1046 FILLER_0_9_149
*1047 FILLER_0_9_163
*1048 FILLER_0_9_167
*1049 FILLER_0_9_169
*1050 FILLER_0_9_173
*1051 FILLER_0_9_179
*1052 FILLER_0_9_187
*1053 FILLER_0_9_20
*1054 FILLER_0_9_36
*1055 FILLER_0_9_48
*1056 FILLER_0_9_75
*1057 FILLER_0_9_87
*1058 FILLER_0_9_99
*1059 PHY_EDGE_ROW_0_Left_43
*1060 PHY_EDGE_ROW_0_Right_0
*1061 PHY_EDGE_ROW_10_Left_53
*1062 PHY_EDGE_ROW_10_Right_10
*1063 PHY_EDGE_ROW_11_Left_54
*1064 PHY_EDGE_ROW_11_Right_11
*1065 PHY_EDGE_ROW_12_Left_55
*1066 PHY_EDGE_ROW_12_Right_12
*1067 PHY_EDGE_ROW_13_Left_56
*1068 PHY_EDGE_ROW_13_Right_13
*1069 PHY_EDGE_ROW_14_Left_57
*1070 PHY_EDGE_ROW_14_Right_14
*1071 PHY_EDGE_ROW_15_Left_58
*1072 PHY_EDGE_ROW_15_Right_15
*1073 PHY_EDGE_ROW_16_Left_59
*1074 PHY_EDGE_ROW_16_Right_16
*1075 PHY_EDGE_ROW_17_Left_60
*1076 PHY_EDGE_ROW_17_Right_17
*1077 PHY_EDGE_ROW_18_Left_61
*1078 PHY_EDGE_ROW_18_Right_18
*1079 PHY_EDGE_ROW_19_Left_62
*1080 PHY_EDGE_ROW_19_Right_19
*1081 PHY_EDGE_ROW_1_Left_44
*1082 PHY_EDGE_ROW_1_Right_1
*1083 PHY_EDGE_ROW_20_Left_63
*1084 PHY_EDGE_ROW_20_Right_20
*1085 PHY_EDGE_ROW_21_Left_64
*1086 PHY_EDGE_ROW_21_Right_21
*1087 PHY_EDGE_ROW_22_Left_65
*1088 PHY_EDGE_ROW_22_Right_22
*1089 PHY_EDGE_ROW_23_Left_66
*1090 PHY_EDGE_ROW_23_Right_23
*1091 PHY_EDGE_ROW_24_Left_67
*1092 PHY_EDGE_ROW_24_Right_24
*1093 PHY_EDGE_ROW_25_Left_68
*1094 PHY_EDGE_ROW_25_Right_25
*1095 PHY_EDGE_ROW_26_Left_69
*1096 PHY_EDGE_ROW_26_Right_26
*1097 PHY_EDGE_ROW_27_Left_70
*1098 PHY_EDGE_ROW_27_Right_27
*1099 PHY_EDGE_ROW_28_Left_71
*1100 PHY_EDGE_ROW_28_Right_28
*1101 PHY_EDGE_ROW_29_Left_72
*1102 PHY_EDGE_ROW_29_Right_29
*1103 PHY_EDGE_ROW_2_Left_45
*1104 PHY_EDGE_ROW_2_Right_2
*1105 PHY_EDGE_ROW_30_Left_73
*1106 PHY_EDGE_ROW_30_Right_30
*1107 PHY_EDGE_ROW_31_Left_74
*1108 PHY_EDGE_ROW_31_Right_31
*1109 PHY_EDGE_ROW_32_Left_75
*1110 PHY_EDGE_ROW_32_Right_32
*1111 PHY_EDGE_ROW_33_Left_76
*1112 PHY_EDGE_ROW_33_Right_33
*1113 PHY_EDGE_ROW_34_Left_77
*1114 PHY_EDGE_ROW_34_Right_34
*1115 PHY_EDGE_ROW_35_Left_78
*1116 PHY_EDGE_ROW_35_Right_35
*1117 PHY_EDGE_ROW_36_Left_79
*1118 PHY_EDGE_ROW_36_Right_36
*1119 PHY_EDGE_ROW_37_Left_80
*1120 PHY_EDGE_ROW_37_Right_37
*1121 PHY_EDGE_ROW_38_Left_81
*1122 PHY_EDGE_ROW_38_Right_38
*1123 PHY_EDGE_ROW_39_Left_82
*1124 PHY_EDGE_ROW_39_Right_39
*1125 PHY_EDGE_ROW_3_Left_46
*1126 PHY_EDGE_ROW_3_Right_3
*1127 PHY_EDGE_ROW_40_Left_83
*1128 PHY_EDGE_ROW_40_Right_40
*1129 PHY_EDGE_ROW_41_Left_84
*1130 PHY_EDGE_ROW_41_Right_41
*1131 PHY_EDGE_ROW_42_Left_85
*1132 PHY_EDGE_ROW_42_Right_42
*1133 PHY_EDGE_ROW_4_Left_47
*1134 PHY_EDGE_ROW_4_Right_4
*1135 PHY_EDGE_ROW_5_Left_48
*1136 PHY_EDGE_ROW_5_Right_5
*1137 PHY_EDGE_ROW_6_Left_49
*1138 PHY_EDGE_ROW_6_Right_6
*1139 PHY_EDGE_ROW_7_Left_50
*1140 PHY_EDGE_ROW_7_Right_7
*1141 PHY_EDGE_ROW_8_Left_51
*1142 PHY_EDGE_ROW_8_Right_8
*1143 PHY_EDGE_ROW_9_Left_52
*1144 PHY_EDGE_ROW_9_Right_9
*1145 TAP_TAPCELL_ROW_0_86
*1146 TAP_TAPCELL_ROW_0_87
*1147 TAP_TAPCELL_ROW_0_88
*1148 TAP_TAPCELL_ROW_0_89
*1149 TAP_TAPCELL_ROW_0_90
*1150 TAP_TAPCELL_ROW_0_91
*1151 TAP_TAPCELL_ROW_10_119
*1152 TAP_TAPCELL_ROW_10_120
*1153 TAP_TAPCELL_ROW_10_121
*1154 TAP_TAPCELL_ROW_11_122
*1155 TAP_TAPCELL_ROW_11_123
*1156 TAP_TAPCELL_ROW_11_124
*1157 TAP_TAPCELL_ROW_12_125
*1158 TAP_TAPCELL_ROW_12_126
*1159 TAP_TAPCELL_ROW_12_127
*1160 TAP_TAPCELL_ROW_13_128
*1161 TAP_TAPCELL_ROW_13_129
*1162 TAP_TAPCELL_ROW_13_130
*1163 TAP_TAPCELL_ROW_14_131
*1164 TAP_TAPCELL_ROW_14_132
*1165 TAP_TAPCELL_ROW_14_133
*1166 TAP_TAPCELL_ROW_15_134
*1167 TAP_TAPCELL_ROW_15_135
*1168 TAP_TAPCELL_ROW_15_136
*1169 TAP_TAPCELL_ROW_16_137
*1170 TAP_TAPCELL_ROW_16_138
*1171 TAP_TAPCELL_ROW_16_139
*1172 TAP_TAPCELL_ROW_17_140
*1173 TAP_TAPCELL_ROW_17_141
*1174 TAP_TAPCELL_ROW_17_142
*1175 TAP_TAPCELL_ROW_18_143
*1176 TAP_TAPCELL_ROW_18_144
*1177 TAP_TAPCELL_ROW_18_145
*1178 TAP_TAPCELL_ROW_19_146
*1179 TAP_TAPCELL_ROW_19_147
*1180 TAP_TAPCELL_ROW_19_148
*1181 TAP_TAPCELL_ROW_1_92
*1182 TAP_TAPCELL_ROW_1_93
*1183 TAP_TAPCELL_ROW_1_94
*1184 TAP_TAPCELL_ROW_20_149
*1185 TAP_TAPCELL_ROW_20_150
*1186 TAP_TAPCELL_ROW_20_151
*1187 TAP_TAPCELL_ROW_21_152
*1188 TAP_TAPCELL_ROW_21_153
*1189 TAP_TAPCELL_ROW_21_154
*1190 TAP_TAPCELL_ROW_22_155
*1191 TAP_TAPCELL_ROW_22_156
*1192 TAP_TAPCELL_ROW_22_157
*1193 TAP_TAPCELL_ROW_23_158
*1194 TAP_TAPCELL_ROW_23_159
*1195 TAP_TAPCELL_ROW_23_160
*1196 TAP_TAPCELL_ROW_24_161
*1197 TAP_TAPCELL_ROW_24_162
*1198 TAP_TAPCELL_ROW_24_163
*1199 TAP_TAPCELL_ROW_25_164
*1200 TAP_TAPCELL_ROW_25_165
*1201 TAP_TAPCELL_ROW_25_166
*1202 TAP_TAPCELL_ROW_26_167
*1203 TAP_TAPCELL_ROW_26_168
*1204 TAP_TAPCELL_ROW_26_169
*1205 TAP_TAPCELL_ROW_27_170
*1206 TAP_TAPCELL_ROW_27_171
*1207 TAP_TAPCELL_ROW_27_172
*1208 TAP_TAPCELL_ROW_28_173
*1209 TAP_TAPCELL_ROW_28_174
*1210 TAP_TAPCELL_ROW_28_175
*1211 TAP_TAPCELL_ROW_29_176
*1212 TAP_TAPCELL_ROW_29_177
*1213 TAP_TAPCELL_ROW_29_178
*1214 TAP_TAPCELL_ROW_2_95
*1215 TAP_TAPCELL_ROW_2_96
*1216 TAP_TAPCELL_ROW_2_97
*1217 TAP_TAPCELL_ROW_30_179
*1218 TAP_TAPCELL_ROW_30_180
*1219 TAP_TAPCELL_ROW_30_181
*1220 TAP_TAPCELL_ROW_31_182
*1221 TAP_TAPCELL_ROW_31_183
*1222 TAP_TAPCELL_ROW_31_184
*1223 TAP_TAPCELL_ROW_32_185
*1224 TAP_TAPCELL_ROW_32_186
*1225 TAP_TAPCELL_ROW_32_187
*1226 TAP_TAPCELL_ROW_33_188
*1227 TAP_TAPCELL_ROW_33_189
*1228 TAP_TAPCELL_ROW_33_190
*1229 TAP_TAPCELL_ROW_34_191
*1230 TAP_TAPCELL_ROW_34_192
*1231 TAP_TAPCELL_ROW_34_193
*1232 TAP_TAPCELL_ROW_35_194
*1233 TAP_TAPCELL_ROW_35_195
*1234 TAP_TAPCELL_ROW_35_196
*1235 TAP_TAPCELL_ROW_36_197
*1236 TAP_TAPCELL_ROW_36_198
*1237 TAP_TAPCELL_ROW_36_199
*1238 TAP_TAPCELL_ROW_37_200
*1239 TAP_TAPCELL_ROW_37_201
*1240 TAP_TAPCELL_ROW_37_202
*1241 TAP_TAPCELL_ROW_38_203
*1242 TAP_TAPCELL_ROW_38_204
*1243 TAP_TAPCELL_ROW_38_205
*1244 TAP_TAPCELL_ROW_39_206
*1245 TAP_TAPCELL_ROW_39_207
*1246 TAP_TAPCELL_ROW_39_208
*1247 TAP_TAPCELL_ROW_3_100
*1248 TAP_TAPCELL_ROW_3_98
*1249 TAP_TAPCELL_ROW_3_99
*1250 TAP_TAPCELL_ROW_40_209
*1251 TAP_TAPCELL_ROW_40_210
*1252 TAP_TAPCELL_ROW_40_211
*1253 TAP_TAPCELL_ROW_41_212
*1254 TAP_TAPCELL_ROW_41_213
*1255 TAP_TAPCELL_ROW_41_214
*1256 TAP_TAPCELL_ROW_42_215
*1257 TAP_TAPCELL_ROW_42_216
*1258 TAP_TAPCELL_ROW_42_217
*1259 TAP_TAPCELL_ROW_42_218
*1260 TAP_TAPCELL_ROW_42_219
*1261 TAP_TAPCELL_ROW_42_220
*1262 TAP_TAPCELL_ROW_4_101
*1263 TAP_TAPCELL_ROW_4_102
*1264 TAP_TAPCELL_ROW_4_103
*1265 TAP_TAPCELL_ROW_5_104
*1266 TAP_TAPCELL_ROW_5_105
*1267 TAP_TAPCELL_ROW_5_106
*1268 TAP_TAPCELL_ROW_6_107
*1269 TAP_TAPCELL_ROW_6_108
*1270 TAP_TAPCELL_ROW_6_109
*1271 TAP_TAPCELL_ROW_7_110
*1272 TAP_TAPCELL_ROW_7_111
*1273 TAP_TAPCELL_ROW_7_112
*1274 TAP_TAPCELL_ROW_8_113
*1275 TAP_TAPCELL_ROW_8_114
*1276 TAP_TAPCELL_ROW_8_115
*1277 TAP_TAPCELL_ROW_9_116
*1278 TAP_TAPCELL_ROW_9_117
*1279 TAP_TAPCELL_ROW_9_118
*1280 _170_
*1281 _171_
*1282 _172_
*1283 _173_
*1284 _174_
*1285 _175_
*1286 _176_
*1287 _177_
*1288 _178_
*1289 _179_
*1290 _180_
*1291 _181_
*1292 _182_
*1293 _183_
*1294 _184_
*1295 _185_
*1296 _186_
*1297 _187_
*1298 _188_
*1299 _189_
*1300 _190_
*1301 _191_
*1302 _192_
*1303 _193_
*1304 _194_
*1305 _195_
*1306 _196_
*1307 _197_
*1308 _198_
*1309 _199_
*1310 _200_
*1311 _201_
*1312 _202_
*1313 _203_
*1314 _204_
*1315 _205_
*1316 _206_
*1317 _207_
*1318 _208_
*1319 _209_
*1320 _210_
*1321 _211_
*1322 _212_
*1323 _213_
*1324 _214_
*1325 _215_
*1326 _216_
*1327 _217_
*1328 _218_
*1329 _219_
*1330 _220_
*1331 _221_
*1332 _222_
*1333 _223_
*1334 _224_
*1335 _225_
*1336 _226_
*1337 _227_
*1338 _228_
*1339 _229_
*1340 _230_
*1341 _231_
*1342 _232_
*1343 _233_
*1344 _234_
*1345 _235_
*1346 _236_
*1347 _237_
*1348 _238_
*1349 _239_
*1350 _240_
*1351 _241_
*1352 _242_
*1353 _243_
*1354 _244_
*1355 _245_
*1356 _246_
*1357 _247_
*1358 _248_
*1359 _249_
*1360 _250_
*1361 _251_
*1362 _252_
*1363 _253_
*1364 _254_
*1365 _255_
*1366 _256_
*1367 _257_
*1368 _258_
*1369 _259_
*1370 _260_
*1371 _261_
*1372 _262_
*1373 _263_
*1374 _264_
*1375 _265_
*1376 _266_
*1377 _267_
*1378 _268_
*1379 _269_
*1380 _270_
*1381 _271_
*1382 _272_
*1383 _273_
*1384 _274_
*1385 _275_
*1386 _276_
*1387 _277_
*1388 _278_
*1389 _279_
*1390 _280_
*1391 _281_
*1392 _282_
*1393 _283_
*1394 _284_
*1395 _285_
*1396 _286_
*1397 _287_
*1398 _288_
*1399 _289_
*1400 _290_
*1401 _291_
*1402 _292_
*1403 _293_
*1404 _294_
*1405 _295_
*1406 _296_
*1407 _297_
*1408 _298_
*1409 _299_
*1410 _300_
*1411 _301_
*1412 _302_
*1413 _303_
*1414 _304_
*1415 _305_
*1416 _306_
*1417 _307_
*1418 _308_
*1419 _309_
*1420 _310_
*1421 _311_
*1422 _312_
*1423 _313_
*1424 _314_
*1425 _315_
*1426 _316_
*1427 _317_
*1428 _318_
*1429 _319_
*1430 _320_
*1431 _321_
*1432 _322_
*1433 _323_
*1434 _324_
*1435 _325_
*1436 _326_
*1437 _327_
*1438 _328_
*1439 _329_
*1440 _330_
*1441 _331_
*1442 _332_
*1443 _333_
*1444 _334_
*1445 _335_
*1446 _336_
*1447 _337_
*1448 _338_
*1449 _339_
*1450 _340_
*1451 _341_
*1452 _342_
*1453 _343_
*1454 _344_
*1455 _345_
*1456 _346_
*1457 _347_
*1458 clone7
*1459 input1
*1460 input10
*1461 input11
*1462 input12
*1463 input13
*1464 input14
*1465 input15
*1466 input16
*1467 input17
*1468 input18
*1469 input19
*1470 input2
*1471 input3
*1472 input4
*1473 input5
*1474 input6
*1475 input7
*1476 input8
*1477 input9
*1478 output20
*1479 output21
*1480 output22
*1481 output23
*1482 output24
*1483 output25
*1484 output26
*1485 output27
*1486 rebuffer1
*1487 rebuffer2
*1488 rebuffer3
*1489 rebuffer4
*1490 rebuffer5
*1491 rebuffer6

*PORTS
A[0] I
A[1] I
A[2] I
A[3] I
A[4] I
A[5] I
A[6] I
A[7] I
B[0] I
B[1] I
B[2] I
B[3] I
B[4] I
B[5] I
B[6] I
B[7] I
opcode[0] I
opcode[1] I
opcode[2] I
out[0] O
out[1] O
out[2] O
out[3] O
out[4] O
out[5] O
out[6] O
out[7] O

*D_NET *1 0.000789143
*CONN
*P A[0] I
*I *1459:A I *D sky130_fd_sc_hd__buf_1
*CAP
1 A[0] 0.000394572
2 *1459:A 0
3 *1:17 0.000394572
4 *1:17 *1470:A 0
5 *1:17 *16:17 0
6 *1:17 *76:10 0
*RES
1 A[0] *1:17 28.567 
2 *1:17 *1459:A 23 
*END

*D_NET *2 0.000662698
*CONN
*P A[1] I
*I *1470:A I *D sky130_fd_sc_hd__buf_2
*CAP
1 A[1] 0.000328262
2 *1470:A 0.000328262
3 *1470:A *3:17 0
4 *1470:A *203:37 6.17437e-06
5 *1:17 *1470:A 0
*RES
1 A[1] *1470:A 49.8062 
*END

*D_NET *3 0.000848009
*CONN
*P A[2] I
*I *1471:A I *D sky130_fd_sc_hd__clkbuf_2
*CAP
1 A[2] 0.000424004
2 *1471:A 0
3 *3:17 0.000424004
4 *3:17 *4:17 0
5 *3:17 *76:10 0
6 *1470:A *3:17 0
*RES
1 A[2] *3:17 28.3391 
2 *3:17 *1471:A 23 
*END

*D_NET *4 0.000774659
*CONN
*P A[3] I
*I *1472:A I *D sky130_fd_sc_hd__clkbuf_2
*CAP
1 A[3] 0.00038733
2 *1472:A 0
3 *4:17 0.00038733
4 *4:17 *5:17 0
5 *4:17 *76:10 0
6 *3:17 *4:17 0
*RES
1 A[3] *4:17 27.6348 
2 *4:17 *1472:A 23 
*END

*D_NET *5 0.000898061
*CONN
*P A[4] I
*I *1473:A I *D sky130_fd_sc_hd__clkbuf_4
*CAP
1 A[4] 0.000449031
2 *1473:A 0
3 *5:17 0.000449031
4 *5:17 *6:17 0
5 *5:17 *76:10 0
6 *4:17 *5:17 0
*RES
1 A[4] *5:17 29.0434 
2 *5:17 *1473:A 23 
*END

*D_NET *6 0.000942573