* NGSPICE file created from ZeroToFiveCounter.ext - technology: sky130A

* Black-box entry subcircuit for sky130_ef_sc_hd__decap_12 abstract view
.subckt sky130_ef_sc_hd__decap_12 VPWR VGND VPB VNB
.ends

* Black-box entry subcircuit for sky130_fd_sc_hd__tapvpwrvgnd_1 abstract view
.subckt sky130_fd_sc_hd__tapvpwrvgnd_1 VGND VPWR
.ends

* Black-box entry subcircuit for sky130_fd_sc_hd__fill_1 abstract view
.subckt sky130_fd_sc_hd__fill_1 VGND VNB VPB VPWR
.ends

* Black-box entry subcircuit for sky130_fd_sc_hd__a21oi_1 abstract view
.subckt sky130_fd_sc_hd__a21oi_1 A1 A2 B1 VGND VNB VPB VPWR Y
.ends

* Black-box entry subcircuit for sky130_fd_sc_hd__and4_1 abstract view
.subckt sky130_fd_sc_hd__and4_1 A B C D VGND VNB VPB VPWR X
.ends

* Black-box entry subcircuit for sky130_fd_sc_hd__clkbuf_16 abstract view
.subckt sky130_fd_sc_hd__clkbuf_16 A VGND VNB VPB VPWR X
.ends

* Black-box entry subcircuit for sky130_fd_sc_hd__decap_6 abstract view
.subckt sky130_fd_sc_hd__decap_6 VGND VNB VPB VPWR
.ends

* Black-box entry subcircuit for sky130_fd_sc_hd__decap_4 abstract view
.subckt sky130_fd_sc_hd__decap_4 VGND VNB VPB VPWR
.ends

* Black-box entry subcircuit for sky130_fd_sc_hd__fill_2 abstract view
.subckt sky130_fd_sc_hd__fill_2 VGND VNB VPB VPWR
.ends

* Black-box entry subcircuit for sky130_fd_sc_hd__decap_3 abstract view
.subckt sky130_fd_sc_hd__decap_3 VGND VNB VPB VPWR
.ends

* Black-box entry subcircuit for sky130_fd_sc_hd__buf_1 abstract view
.subckt sky130_fd_sc_hd__buf_1 A VGND VNB VPB VPWR X
.ends

* Black-box entry subcircuit for sky130_fd_sc_hd__decap_8 abstract view
.subckt sky130_fd_sc_hd__decap_8 VGND VNB VPB VPWR
.ends

* Black-box entry subcircuit for sky130_fd_sc_hd__xor2_1 abstract view
.subckt sky130_fd_sc_hd__xor2_1 A B VGND VNB VPB VPWR X
.ends

* Black-box entry subcircuit for sky130_fd_sc_hd__dfrtp_2 abstract view
.subckt sky130_fd_sc_hd__dfrtp_2 CLK D RESET_B VGND VNB VPB VPWR Q
.ends

* Black-box entry subcircuit for sky130_fd_sc_hd__and2b_1 abstract view
.subckt sky130_fd_sc_hd__and2b_1 A_N B VGND VNB VPB VPWR X
.ends

* Black-box entry subcircuit for sky130_fd_sc_hd__dfrtp_4 abstract view
.subckt sky130_fd_sc_hd__dfrtp_4 CLK D RESET_B VGND VNB VPB VPWR Q
.ends

* Black-box entry subcircuit for sky130_fd_sc_hd__nand2_1 abstract view
.subckt sky130_fd_sc_hd__nand2_1 A B VGND VNB VPB VPWR Y
.ends

* Black-box entry subcircuit for sky130_fd_sc_hd__dfrtp_1 abstract view
.subckt sky130_fd_sc_hd__dfrtp_1 CLK D RESET_B VGND VNB VPB VPWR Q
.ends

* Black-box entry subcircuit for sky130_fd_sc_hd__nor2_1 abstract view
.subckt sky130_fd_sc_hd__nor2_1 A B VGND VNB VPB VPWR Y
.ends

* Black-box entry subcircuit for sky130_fd_sc_hd__clkbuf_4 abstract view
.subckt sky130_fd_sc_hd__clkbuf_4 A VGND VNB VPB VPWR X
.ends

* Black-box entry subcircuit for sky130_fd_sc_hd__inv_2 abstract view
.subckt sky130_fd_sc_hd__inv_2 A VGND VNB VPB VPWR Y
.ends

* Black-box entry subcircuit for sky130_fd_sc_hd__clkbuf_1 abstract view
.subckt sky130_fd_sc_hd__clkbuf_1 A VGND VNB VPB VPWR X
.ends

* Black-box entry subcircuit for sky130_fd_sc_hd__bufinv_16 abstract view
.subckt sky130_fd_sc_hd__bufinv_16 A VGND VNB VPB VPWR Y
.ends

* Black-box entry subcircuit for sky130_fd_sc_hd__clkinv_1 abstract view
.subckt sky130_fd_sc_hd__clkinv_1 A VGND VNB VPB VPWR Y
.ends

* Black-box entry subcircuit for sky130_fd_sc_hd__and2_1 abstract view
.subckt sky130_fd_sc_hd__and2_1 A B VGND VNB VPB VPWR X
.ends

* Black-box entry subcircuit for sky130_fd_sc_hd__a21o_1 abstract view
.subckt sky130_fd_sc_hd__a21o_1 A1 A2 B1 VGND VNB VPB VPWR X
.ends

* Black-box entry subcircuit for sky130_fd_sc_hd__or2_1 abstract view
.subckt sky130_fd_sc_hd__or2_1 A B VGND VNB VPB VPWR X
.ends

* Black-box entry subcircuit for sky130_fd_sc_hd__o2bb2a_1 abstract view
.subckt sky130_fd_sc_hd__o2bb2a_1 A1_N A2_N B1 B2 VGND VNB VPB VPWR X
.ends

* Black-box entry subcircuit for sky130_fd_sc_hd__and3_1 abstract view
.subckt sky130_fd_sc_hd__and3_1 A B C VGND VNB VPB VPWR X
.ends

* Black-box entry subcircuit for sky130_fd_sc_hd__a21boi_1 abstract view
.subckt sky130_fd_sc_hd__a21boi_1 A1 A2 B1_N VGND VNB VPB VPWR Y
.ends

* Black-box entry subcircuit for sky130_fd_sc_hd__o21ba_1 abstract view
.subckt sky130_fd_sc_hd__o21ba_1 A1 A2 B1_N VGND VNB VPB VPWR X
.ends

* Black-box entry subcircuit for sky130_fd_sc_hd__clkbuf_8 abstract view
.subckt sky130_fd_sc_hd__clkbuf_8 A VGND VNB VPB VPWR X
.ends

* Black-box entry subcircuit for sky130_fd_sc_hd__or3_1 abstract view
.subckt sky130_fd_sc_hd__or3_1 A B C VGND VNB VPB VPWR X
.ends

* Black-box entry subcircuit for sky130_fd_sc_hd__buf_4 abstract view
.subckt sky130_fd_sc_hd__buf_4 A VGND VNB VPB VPWR X
.ends

* Black-box entry subcircuit for sky130_fd_sc_hd__and4_2 abstract view
.subckt sky130_fd_sc_hd__and4_2 A B C D VGND VNB VPB VPWR X
.ends

* Black-box entry subcircuit for sky130_fd_sc_hd__o21a_1 abstract view
.subckt sky130_fd_sc_hd__o21a_1 A1 A2 B1 VGND VNB VPB VPWR X
.ends

* Black-box entry subcircuit for sky130_fd_sc_hd__xnor2_1 abstract view
.subckt sky130_fd_sc_hd__xnor2_1 A B VGND VNB VPB VPWR Y
.ends

* Black-box entry subcircuit for sky130_fd_sc_hd__a31o_1 abstract view
.subckt sky130_fd_sc_hd__a31o_1 A1 A2 A3 B1 VGND VNB VPB VPWR X
.ends

* Black-box entry subcircuit for sky130_fd_sc_hd__a2111o_1 abstract view
.subckt sky130_fd_sc_hd__a2111o_1 A1 A2 B1 C1 D1 VGND VNB VPB VPWR X
.ends

* Black-box entry subcircuit for sky130_fd_sc_hd__nor2_2 abstract view
.subckt sky130_fd_sc_hd__nor2_2 A B VGND VNB VPB VPWR Y
.ends

* Black-box entry subcircuit for sky130_fd_sc_hd__o31ai_2 abstract view
.subckt sky130_fd_sc_hd__o31ai_2 A1 A2 A3 B1 VGND VNB VPB VPWR Y
.ends

* Black-box entry subcircuit for sky130_fd_sc_hd__conb_1 abstract view
.subckt sky130_fd_sc_hd__conb_1 VGND VNB VPB VPWR HI LO
.ends

* Black-box entry subcircuit for sky130_fd_sc_hd__nand4b_2 abstract view
.subckt sky130_fd_sc_hd__nand4b_2 A_N B C D VGND VNB VPB VPWR Y
.ends

* Black-box entry subcircuit for sky130_fd_sc_hd__or3b_2 abstract view
.subckt sky130_fd_sc_hd__or3b_2 A B C_N VGND VNB VPB VPWR X
.ends

.subckt ZeroToFiveCounter AN[0] AN[1] AN[2] AN[3] BTNC CLK100MHZ VGND VPWR seg[0]
+ seg[1] seg[2] seg[3] seg[4] seg[5] seg[6]
XFILLER_0_3_28 VPWR VGND VPWR VGND sky130_ef_sc_hd__decap_12
XTAP_TAPCELL_ROW_21_109 VGND VPWR sky130_fd_sc_hd__tapvpwrvgnd_1
XFILLER_0_13_73 VGND VGND VPWR VPWR sky130_fd_sc_hd__fill_1
XFILLER_0_18_29 VPWR VGND VPWR VGND sky130_ef_sc_hd__decap_12
X_131_ decoder.count\[1\] decoder.count\[0\] decoder.count\[2\] VGND VGND VPWR VPWR
+ _063_ sky130_fd_sc_hd__a21oi_1
X_200_ decoder.delay\[11\] decoder.delay\[12\] _100_ _094_ VGND VGND VPWR VPWR _105_
+ sky130_fd_sc_hd__and4_1
XFILLER_0_29_39 VPWR VGND VPWR VGND sky130_ef_sc_hd__decap_12
Xclkbuf_2_3__f_CLK100MHZ clknet_0_CLK100MHZ VGND VGND VPWR VPWR clknet_2_3__leaf_CLK100MHZ
+ sky130_fd_sc_hd__clkbuf_16
XFILLER_0_0_29 VPWR VGND VPWR VGND sky130_ef_sc_hd__decap_12
XFILLER_0_9_49 VGND VGND VPWR VPWR sky130_fd_sc_hd__fill_1
XFILLER_0_10_41 VPWR VGND VPWR VGND sky130_ef_sc_hd__decap_12
XFILLER_0_10_85 VPWR VGND VPWR VGND sky130_ef_sc_hd__decap_12
XFILLER_0_25_106 VGND VGND VPWR VPWR sky130_fd_sc_hd__decap_6
XFILLER_0_26_29 VGND VGND VPWR VPWR sky130_fd_sc_hd__decap_4
XFILLER_0_1_83 VGND VGND VPWR VPWR sky130_fd_sc_hd__fill_2
XPHY_EDGE_ROW_16_Left_48 VGND VGND VPWR VPWR sky130_fd_sc_hd__decap_3
Xoutput7 net7 VGND VGND VPWR VPWR seg[6] sky130_fd_sc_hd__buf_1
XFILLER_0_27_83 VPWR VGND VPWR VGND sky130_ef_sc_hd__decap_12
XPHY_EDGE_ROW_19_Left_51 VGND VGND VPWR VPWR sky130_fd_sc_hd__decap_3
XFILLER_0_24_40 VGND VGND VPWR VPWR sky130_fd_sc_hd__decap_8
X_130_ decoder.count\[3\] _062_ VGND VGND VPWR VPWR _057_ sky130_fd_sc_hd__xor2_1
XPHY_EDGE_ROW_21_Right_21 VGND VGND VPWR VPWR sky130_fd_sc_hd__decap_3
XPHY_EDGE_ROW_4_Left_36 VGND VGND VPWR VPWR sky130_fd_sc_hd__decap_3
XPHY_EDGE_ROW_12_Right_12 VGND VGND VPWR VPWR sky130_fd_sc_hd__decap_3
XPHY_EDGE_ROW_30_Right_30 VGND VGND VPWR VPWR sky130_fd_sc_hd__decap_3
X_259_ clknet_2_3__leaf_CLK100MHZ _024_ _038_ VGND VGND VPWR VPWR decoder.delay\[9\]
+ sky130_fd_sc_hd__dfrtp_2
XFILLER_0_10_53 VPWR VGND VPWR VGND sky130_ef_sc_hd__decap_12
XFILLER_0_10_97 VPWR VGND VPWR VGND sky130_ef_sc_hd__decap_12
XFILLER_0_26_19 VGND VGND VPWR VPWR sky130_fd_sc_hd__decap_8
XFILLER_0_21_121 VGND VGND VPWR VPWR sky130_fd_sc_hd__fill_1
XFILLER_0_6_29 VGND VGND VPWR VPWR sky130_fd_sc_hd__decap_8
XFILLER_0_16_41 VGND VGND VPWR VPWR sky130_fd_sc_hd__fill_2
XPHY_EDGE_ROW_6_Right_6 VGND VGND VPWR VPWR sky130_fd_sc_hd__decap_3
XFILLER_0_27_95 VGND VGND VPWR VPWR sky130_fd_sc_hd__decap_4
XPHY_EDGE_ROW_20_Left_52 VGND VGND VPWR VPWR sky130_fd_sc_hd__decap_3
X_189_ _097_ _098_ VGND VGND VPWR VPWR _099_ sky130_fd_sc_hd__and2b_1
XFILLER_0_19_105 VGND VGND VPWR VPWR sky130_fd_sc_hd__decap_6
X_258_ clknet_2_1__leaf_CLK100MHZ _023_ _037_ VGND VGND VPWR VPWR decoder.delay\[8\]
+ sky130_fd_sc_hd__dfrtp_2
XFILLER_0_10_65 VPWR VGND VPWR VGND sky130_ef_sc_hd__decap_12
XFILLER_0_21_97 VPWR VGND VPWR VGND sky130_ef_sc_hd__decap_12
XFILLER_0_30_122 VGND VGND VPWR VPWR sky130_fd_sc_hd__decap_3
XFILLER_0_1_96 VGND VGND VPWR VPWR sky130_fd_sc_hd__decap_8
XFILLER_0_6_19 VGND VGND VPWR VPWR sky130_fd_sc_hd__decap_8
XFILLER_0_9_3 VPWR VGND VPWR VGND sky130_ef_sc_hd__decap_12
XFILLER_0_7_51 VGND VGND VPWR VPWR sky130_fd_sc_hd__decap_4
XFILLER_0_13_10 VPWR VGND VPWR VGND sky130_ef_sc_hd__decap_12
XFILLER_0_13_54 VGND VGND VPWR VPWR sky130_fd_sc_hd__fill_2
XFILLER_0_1_111 VGND VGND VPWR VPWR sky130_fd_sc_hd__fill_1
X_274_ clknet_2_0__leaf_CLK100MHZ _016_ _053_ VGND VGND VPWR VPWR decoder.delay\[24\]
+ sky130_fd_sc_hd__dfrtp_4
XFILLER_0_4_85 VPWR VGND VPWR VGND sky130_ef_sc_hd__decap_12
X_188_ decoder.delay\[8\] _094_ VGND VGND VPWR VPWR _098_ sky130_fd_sc_hd__nand2_1
XFILLER_0_19_75 VGND VGND VPWR VPWR sky130_fd_sc_hd__fill_1
XFILLER_0_10_77 VGND VGND VPWR VPWR sky130_fd_sc_hd__decap_6
X_257_ clknet_2_2__leaf_CLK100MHZ _022_ _036_ VGND VGND VPWR VPWR decoder.delay\[7\]
+ sky130_fd_sc_hd__dfrtp_1
XFILLER_0_27_75 VGND VGND VPWR VPWR sky130_fd_sc_hd__fill_1
XFILLER_0_7_30 VGND VGND VPWR VPWR sky130_fd_sc_hd__decap_6
XFILLER_0_13_22 VGND VGND VPWR VPWR sky130_fd_sc_hd__decap_6
XFILLER_0_1_123 VGND VGND VPWR VPWR sky130_fd_sc_hd__fill_2
X_273_ clknet_2_3__leaf_CLK100MHZ _015_ _052_ VGND VGND VPWR VPWR decoder.delay\[23\]
+ sky130_fd_sc_hd__dfrtp_1
XFILLER_0_4_97 VGND VGND VPWR VPWR sky130_fd_sc_hd__fill_1
X_187_ decoder.delay\[8\] _094_ VGND VGND VPWR VPWR _097_ sky130_fd_sc_hd__nor2_1
X_256_ clknet_2_1__leaf_CLK100MHZ _021_ _035_ VGND VGND VPWR VPWR decoder.delay\[6\]
+ sky130_fd_sc_hd__dfrtp_2
XFILLER_0_19_118 VGND VGND VPWR VPWR sky130_fd_sc_hd__decap_6
Xclkload0 clknet_2_0__leaf_CLK100MHZ VGND VGND VPWR VPWR clkload0/X sky130_fd_sc_hd__clkbuf_4
XFILLER_0_21_11 VPWR VGND VPWR VGND sky130_ef_sc_hd__decap_12
X_239_ _112_ VGND VGND VPWR VPWR _047_ sky130_fd_sc_hd__inv_2
XFILLER_0_21_113 VGND VGND VPWR VPWR sky130_fd_sc_hd__decap_8
XFILLER_0_16_33 VGND VGND VPWR VPWR sky130_fd_sc_hd__fill_1
XFILLER_0_16_99 VGND VGND VPWR VPWR sky130_fd_sc_hd__fill_1
XFILLER_0_25_3 VGND VGND VPWR VPWR sky130_fd_sc_hd__decap_4
XPHY_EDGE_ROW_28_Right_28 VGND VGND VPWR VPWR sky130_fd_sc_hd__decap_3
XFILLER_0_27_10 VPWR VGND VPWR VGND sky130_ef_sc_hd__decap_12
XPHY_EDGE_ROW_19_Right_19 VGND VGND VPWR VPWR sky130_fd_sc_hd__decap_3
XFILLER_0_1_113 VGND VGND VPWR VPWR sky130_fd_sc_hd__decap_6
XFILLER_0_13_34 VPWR VGND VPWR VGND sky130_ef_sc_hd__decap_12
X_272_ clknet_2_0__leaf_CLK100MHZ _014_ _051_ VGND VGND VPWR VPWR decoder.delay\[22\]
+ sky130_fd_sc_hd__dfrtp_1
XPHY_EDGE_ROW_24_Left_56 VGND VGND VPWR VPWR sky130_fd_sc_hd__decap_3
X_255_ clknet_2_1__leaf_CLK100MHZ _020_ _034_ VGND VGND VPWR VPWR decoder.delay\[5\]
+ sky130_fd_sc_hd__dfrtp_2
X_186_ _096_ VGND VGND VPWR VPWR _022_ sky130_fd_sc_hd__clkbuf_1
XFILLER_0_19_88 VGND VGND VPWR VPWR sky130_fd_sc_hd__fill_2
XFILLER_0_19_55 VGND VGND VPWR VPWR sky130_fd_sc_hd__fill_1
Xclkload1 clknet_2_2__leaf_CLK100MHZ VGND VGND VPWR VPWR clkload1/Y sky130_fd_sc_hd__bufinv_16
XFILLER_0_21_23 VPWR VGND VPWR VGND sky130_ef_sc_hd__decap_12
X_169_ _085_ VGND VGND VPWR VPWR _011_ sky130_fd_sc_hd__clkbuf_1
X_238_ _112_ VGND VGND VPWR VPWR _046_ sky130_fd_sc_hd__inv_2
XFILLER_0_18_3 VPWR VGND VPWR VGND sky130_ef_sc_hd__decap_12
XPHY_EDGE_ROW_11_Left_43 VGND VGND VPWR VPWR sky130_fd_sc_hd__decap_3
XFILLER_0_27_55 VGND VGND VPWR VPWR sky130_fd_sc_hd__fill_1
XFILLER_0_27_22 VGND VGND VPWR VPWR sky130_fd_sc_hd__fill_2
XTAP_TAPCELL_ROW_23_112 VGND VPWR sky130_fd_sc_hd__tapvpwrvgnd_1
XFILLER_0_7_3 VGND VGND VPWR VPWR sky130_fd_sc_hd__decap_6
XTAP_TAPCELL_ROW_3_72 VGND VPWR sky130_fd_sc_hd__tapvpwrvgnd_1
XFILLER_0_13_46 VGND VGND VPWR VPWR sky130_fd_sc_hd__decap_8
XFILLER_0_13_57 VPWR VGND VPWR VGND sky130_ef_sc_hd__decap_12
XFILLER_0_24_56 VPWR VGND VPWR VGND sky130_ef_sc_hd__decap_12
X_271_ clknet_2_2__leaf_CLK100MHZ _013_ _050_ VGND VGND VPWR VPWR decoder.delay\[21\]
+ sky130_fd_sc_hd__dfrtp_1
XFILLER_0_28_109 VPWR VGND VPWR VGND sky130_ef_sc_hd__decap_12
X_254_ clknet_2_2__leaf_CLK100MHZ _019_ _033_ VGND VGND VPWR VPWR decoder.delay\[4\]
+ sky130_fd_sc_hd__dfrtp_2
X_185_ _094_ _095_ VGND VGND VPWR VPWR _096_ sky130_fd_sc_hd__and2b_1
XTAP_TAPCELL_ROW_13_92 VGND VPWR sky130_fd_sc_hd__tapvpwrvgnd_1
Xclkload2 clknet_2_3__leaf_CLK100MHZ VGND VGND VPWR VPWR clkload2/Y sky130_fd_sc_hd__clkinv_1
XFILLER_0_24_112 VGND VGND VPWR VPWR sky130_fd_sc_hd__decap_4
X_237_ _112_ VGND VGND VPWR VPWR _045_ sky130_fd_sc_hd__inv_2
X_168_ _083_ _084_ VGND VGND VPWR VPWR _085_ sky130_fd_sc_hd__and2_1
XFILLER_0_1_23 VGND VGND VPWR VPWR sky130_fd_sc_hd__fill_1
XFILLER_0_16_46 VPWR VGND VPWR VGND sky130_ef_sc_hd__decap_12
XPHY_EDGE_ROW_1_Right_1 VGND VGND VPWR VPWR sky130_fd_sc_hd__decap_3
XFILLER_0_30_3 VPWR VGND VPWR VGND sky130_ef_sc_hd__decap_12
XTAP_TAPCELL_ROW_23_113 VGND VPWR sky130_fd_sc_hd__tapvpwrvgnd_1
XFILLER_0_7_55 VGND VGND VPWR VPWR sky130_fd_sc_hd__fill_1
XFILLER_0_7_99 VGND VGND VPWR VPWR sky130_fd_sc_hd__decap_4
XTAP_TAPCELL_ROW_3_73 VGND VPWR sky130_fd_sc_hd__tapvpwrvgnd_1
XFILLER_0_13_69 VGND VGND VPWR VPWR sky130_fd_sc_hd__decap_4
X_270_ clknet_2_1__leaf_CLK100MHZ _012_ _049_ VGND VGND VPWR VPWR decoder.delay\[20\]
+ sky130_fd_sc_hd__dfrtp_1
XFILLER_0_24_68 VPWR VGND VPWR VGND sky130_ef_sc_hd__decap_12
XTAP_TAPCELL_ROW_13_93 VGND VPWR sky130_fd_sc_hd__tapvpwrvgnd_1
XFILLER_0_27_121 VGND VGND VPWR VPWR sky130_fd_sc_hd__fill_1
X_253_ clknet_2_3__leaf_CLK100MHZ _018_ _032_ VGND VGND VPWR VPWR decoder.delay\[3\]
+ sky130_fd_sc_hd__dfrtp_1
XFILLER_0_19_57 VPWR VGND VPWR VGND sky130_ef_sc_hd__decap_12
XFILLER_0_19_35 VGND VGND VPWR VPWR sky130_fd_sc_hd__decap_3
X_184_ decoder.delay\[6\] _090_ decoder.delay\[7\] VGND VGND VPWR VPWR _095_ sky130_fd_sc_hd__a21o_1
XFILLER_0_10_26 VGND VGND VPWR VPWR sky130_fd_sc_hd__fill_2
X_236_ _114_ VGND VGND VPWR VPWR _044_ sky130_fd_sc_hd__inv_2
X_167_ decoder.delay\[1\] decoder.delay\[0\] VGND VGND VPWR VPWR _084_ sky130_fd_sc_hd__or2_1
XFILLER_0_30_105 VGND VGND VPWR VPWR sky130_fd_sc_hd__fill_1
XFILLER_0_1_57 VPWR VGND VPWR VGND sky130_ef_sc_hd__decap_12
X_219_ _113_ VGND VGND VPWR VPWR _028_ sky130_fd_sc_hd__inv_2
XFILLER_0_16_58 VGND VGND VPWR VPWR sky130_fd_sc_hd__decap_6
XFILLER_0_27_57 VPWR VGND VPWR VGND sky130_ef_sc_hd__decap_12
XTAP_TAPCELL_ROW_17_100 VGND VPWR sky130_fd_sc_hd__tapvpwrvgnd_1
XPHY_EDGE_ROW_24_Right_24 VGND VGND VPWR VPWR sky130_fd_sc_hd__decap_3
XFILLER_0_23_3 VGND VGND VPWR VPWR sky130_fd_sc_hd__decap_8
XFILLER_0_4_124 VGND VGND VPWR VPWR sky130_fd_sc_hd__fill_1
XFILLER_0_7_12 VGND VGND VPWR VPWR sky130_fd_sc_hd__decap_3
XFILLER_0_7_23 VGND VGND VPWR VPWR sky130_fd_sc_hd__decap_3
XPHY_EDGE_ROW_15_Right_15 VGND VGND VPWR VPWR sky130_fd_sc_hd__decap_3
XTAP_TAPCELL_ROW_20_106 VGND VPWR sky130_fd_sc_hd__tapvpwrvgnd_1
XFILLER_0_14_80 VGND VGND VPWR VPWR sky130_fd_sc_hd__decap_4
X_183_ _093_ VGND VGND VPWR VPWR _094_ sky130_fd_sc_hd__clkbuf_4
XFILLER_0_19_69 VGND VGND VPWR VPWR sky130_fd_sc_hd__decap_6
XFILLER_0_19_47 VGND VGND VPWR VPWR sky130_fd_sc_hd__decap_8
XTAP_TAPCELL_ROW_0_64 VGND VPWR sky130_fd_sc_hd__tapvpwrvgnd_1
X_252_ clknet_2_1__leaf_CLK100MHZ _017_ _031_ VGND VGND VPWR VPWR decoder.delay\[2\]
+ sky130_fd_sc_hd__dfrtp_1
XTAP_TAPCELL_ROW_9_84 VGND VPWR sky130_fd_sc_hd__tapvpwrvgnd_1
X_235_ _114_ VGND VGND VPWR VPWR _043_ sky130_fd_sc_hd__inv_2
X_166_ decoder.delay\[1\] decoder.delay\[0\] VGND VGND VPWR VPWR _083_ sky130_fd_sc_hd__nand2_1
XFILLER_0_1_69 VGND VGND VPWR VPWR sky130_fd_sc_hd__decap_6
XFILLER_0_11_81 VPWR VGND VPWR VGND sky130_ef_sc_hd__decap_12
X_218_ _113_ VGND VGND VPWR VPWR _027_ sky130_fd_sc_hd__inv_2
X_149_ _075_ _066_ _074_ decoder.delay\[22\] VGND VGND VPWR VPWR _014_ sky130_fd_sc_hd__o2bb2a_1
XFILLER_0_16_15 VGND VGND VPWR VPWR sky130_fd_sc_hd__decap_4
XFILLER_0_7_111 VGND VGND VPWR VPWR sky130_fd_sc_hd__fill_1
XFILLER_0_27_69 VGND VGND VPWR VPWR sky130_fd_sc_hd__decap_6
XTAP_TAPCELL_ROW_17_101 VGND VPWR sky130_fd_sc_hd__tapvpwrvgnd_1
XFILLER_0_7_57 VGND VGND VPWR VPWR sky130_fd_sc_hd__fill_1
XPHY_EDGE_ROW_15_Left_47 VGND VGND VPWR VPWR sky130_fd_sc_hd__decap_3
XFILLER_0_16_3 VPWR VGND VPWR VGND sky130_ef_sc_hd__decap_12
XTAP_TAPCELL_ROW_20_107 VGND VPWR sky130_fd_sc_hd__tapvpwrvgnd_1
XFILLER_0_24_48 VGND VGND VPWR VPWR sky130_fd_sc_hd__fill_2
XFILLER_0_24_15 VPWR VGND VPWR VGND sky130_ef_sc_hd__decap_12
XPHY_EDGE_ROW_18_Left_50 VGND VGND VPWR VPWR sky130_fd_sc_hd__decap_3
XFILLER_0_19_15 VPWR VGND VPWR VGND sky130_ef_sc_hd__decap_12
XTAP_TAPCELL_ROW_0_65 VGND VPWR sky130_fd_sc_hd__tapvpwrvgnd_1
X_251_ clknet_2_0__leaf_CLK100MHZ _011_ _030_ VGND VGND VPWR VPWR decoder.delay\[1\]
+ sky130_fd_sc_hd__dfrtp_1
X_182_ decoder.delay\[4\] _059_ _092_ VGND VGND VPWR VPWR _093_ sky130_fd_sc_hd__and3_1
XTAP_TAPCELL_ROW_9_85 VGND VPWR sky130_fd_sc_hd__tapvpwrvgnd_1
XPHY_EDGE_ROW_3_Left_35 VGND VGND VPWR VPWR sky130_fd_sc_hd__decap_3
XFILLER_0_5_90 VGND VGND VPWR VPWR sky130_fd_sc_hd__decap_4
XFILLER_0_21_38 VPWR VGND VPWR VGND sky130_ef_sc_hd__decap_12
XFILLER_0_1_15 VGND VGND VPWR VPWR sky130_fd_sc_hd__decap_8
X_234_ _114_ VGND VGND VPWR VPWR _042_ sky130_fd_sc_hd__inv_2
X_165_ decoder.delay\[0\] VGND VGND VPWR VPWR _000_ sky130_fd_sc_hd__inv_2
XFILLER_0_11_93 VGND VGND VPWR VPWR sky130_fd_sc_hd__decap_6
X_148_ decoder.delay\[22\] _116_ _117_ VGND VGND VPWR VPWR _075_ sky130_fd_sc_hd__and3_1
X_217_ _113_ VGND VGND VPWR VPWR _026_ sky130_fd_sc_hd__inv_2
XFILLER_0_16_27 VGND VGND VPWR VPWR sky130_fd_sc_hd__fill_1
XFILLER_0_4_104 VGND VGND VPWR VPWR sky130_fd_sc_hd__decap_6
XPHY_EDGE_ROW_5_Right_5 VGND VGND VPWR VPWR sky130_fd_sc_hd__decap_3
XFILLER_0_24_27 VGND VGND VPWR VPWR sky130_fd_sc_hd__fill_1
XFILLER_0_4_15 VPWR VGND VPWR VGND sky130_ef_sc_hd__decap_12
XFILLER_0_19_27 VGND VGND VPWR VPWR sky130_fd_sc_hd__decap_8
XFILLER_0_10_29 VPWR VGND VPWR VGND sky130_ef_sc_hd__decap_12
X_250_ clknet_2_3__leaf_CLK100MHZ _000_ _029_ VGND VGND VPWR VPWR decoder.delay\[0\]
+ sky130_fd_sc_hd__dfrtp_4
X_181_ decoder.delay\[5\] decoder.delay\[7\] decoder.delay\[6\] VGND VGND VPWR VPWR
+ _092_ sky130_fd_sc_hd__and3_1
XFILLER_0_27_113 VGND VGND VPWR VPWR sky130_fd_sc_hd__decap_8
XTAP_TAPCELL_ROW_0_66 VGND VPWR sky130_fd_sc_hd__tapvpwrvgnd_1
XFILLER_0_24_116 VGND VGND VPWR VPWR sky130_fd_sc_hd__fill_1
X_233_ _114_ VGND VGND VPWR VPWR _041_ sky130_fd_sc_hd__inv_2
XFILLER_0_1_27 VGND VGND VPWR VPWR sky130_fd_sc_hd__decap_4
X_164_ decoder.count\[1\] _079_ _064_ VGND VGND VPWR VPWR net7 sky130_fd_sc_hd__a21boi_1
XTAP_TAPCELL_ROW_10_86 VGND VPWR sky130_fd_sc_hd__tapvpwrvgnd_1
X_216_ _113_ VGND VGND VPWR VPWR _025_ sky130_fd_sc_hd__inv_2
X_147_ decoder.delay\[21\] _073_ _074_ VGND VGND VPWR VPWR _013_ sky130_fd_sc_hd__o21ba_1
XFILLER_0_7_124 VGND VGND VPWR VPWR sky130_fd_sc_hd__fill_1
XFILLER_0_7_113 VGND VGND VPWR VPWR sky130_fd_sc_hd__decap_3
XFILLER_0_2_92 VGND VGND VPWR VPWR sky130_fd_sc_hd__decap_8
XFILLER_0_4_116 VGND VGND VPWR VPWR sky130_fd_sc_hd__decap_8
XFILLER_0_17_71 VGND VGND VPWR VPWR sky130_fd_sc_hd__fill_2
XFILLER_0_17_93 VPWR VGND VPWR VGND sky130_ef_sc_hd__decap_12
XPHY_EDGE_ROW_20_Right_20 VGND VGND VPWR VPWR sky130_fd_sc_hd__decap_3
XFILLER_0_1_119 VGND VGND VPWR VPWR sky130_fd_sc_hd__fill_1
XPHY_EDGE_ROW_11_Right_11 VGND VGND VPWR VPWR sky130_fd_sc_hd__decap_3
XFILLER_0_21_3 VGND VGND VPWR VPWR sky130_fd_sc_hd__fill_1
XFILLER_0_4_27 VGND VGND VPWR VPWR sky130_fd_sc_hd__fill_1
X_180_ decoder.delay\[6\] _090_ VGND VGND VPWR VPWR _021_ sky130_fd_sc_hd__xor2_1
XTAP_TAPCELL_ROW_0_67 VGND VPWR sky130_fd_sc_hd__tapvpwrvgnd_1
X_232_ _114_ VGND VGND VPWR VPWR _040_ sky130_fd_sc_hd__inv_2
X_163_ _082_ VGND VGND VPWR VPWR net6 sky130_fd_sc_hd__clkbuf_1
XTAP_TAPCELL_ROW_10_87 VGND VPWR sky130_fd_sc_hd__tapvpwrvgnd_1
XFILLER_0_21_109 VGND VGND VPWR VPWR sky130_fd_sc_hd__decap_3
XFILLER_0_16_29 VGND VGND VPWR VPWR sky130_fd_sc_hd__decap_4
X_215_ _112_ VGND VGND VPWR VPWR _113_ sky130_fd_sc_hd__clkbuf_8
XFILLER_0_7_103 VGND VGND VPWR VPWR sky130_fd_sc_hd__fill_1
X_146_ _116_ _117_ _066_ VGND VGND VPWR VPWR _074_ sky130_fd_sc_hd__and3_1
XFILLER_0_27_28 VGND VGND VPWR VPWR sky130_fd_sc_hd__decap_3
X_129_ decoder.delay\[24\] _115_ _118_ _061_ VGND VGND VPWR VPWR _062_ sky130_fd_sc_hd__and4_1
XFILLER_0_14_3 VPWR VGND VPWR VGND sky130_ef_sc_hd__decap_12
XFILLER_0_24_29 VGND VGND VPWR VPWR sky130_fd_sc_hd__decap_8
XFILLER_0_30_83 VGND VGND VPWR VPWR sky130_fd_sc_hd__fill_1
XFILLER_0_27_104 VGND VGND VPWR VPWR sky130_fd_sc_hd__decap_8
XFILLER_0_3_3 VPWR VGND VPWR VGND sky130_ef_sc_hd__decap_12
XFILLER_0_25_50 VGND VGND VPWR VPWR sky130_fd_sc_hd__fill_1
X_231_ _114_ VGND VGND VPWR VPWR _039_ sky130_fd_sc_hd__inv_2
X_162_ decoder.count\[3\] decoder.count\[1\] _081_ VGND VGND VPWR VPWR _082_ sky130_fd_sc_hd__or3_1
XFILLER_0_15_118 VGND VGND VPWR VPWR sky130_fd_sc_hd__decap_4
XPHY_EDGE_ROW_7_Left_39 VGND VGND VPWR VPWR sky130_fd_sc_hd__decap_3
XTAP_TAPCELL_ROW_29_124 VGND VPWR sky130_fd_sc_hd__tapvpwrvgnd_1
XTAP_TAPCELL_ROW_6_78 VGND VPWR sky130_fd_sc_hd__tapvpwrvgnd_1
X_145_ _072_ _073_ VGND VGND VPWR VPWR _012_ sky130_fd_sc_hd__nor2_1
X_214_ BTNC VGND VGND VPWR VPWR _112_ sky130_fd_sc_hd__buf_4
XFILLER_0_2_83 VGND VGND VPWR VPWR sky130_fd_sc_hd__fill_1
XTAP_TAPCELL_ROW_31_130 VGND VPWR sky130_fd_sc_hd__tapvpwrvgnd_1
XFILLER_0_7_39 VPWR VGND VPWR VGND sky130_ef_sc_hd__decap_12
X_128_ _119_ _058_ _059_ _060_ VGND VGND VPWR VPWR _061_ sky130_fd_sc_hd__and4_2
XTAP_TAPCELL_ROW_16_98 VGND VPWR sky130_fd_sc_hd__tapvpwrvgnd_1
XPHY_EDGE_ROW_9_Right_9 VGND VGND VPWR VPWR sky130_fd_sc_hd__decap_3
XFILLER_0_28_83 VGND VGND VPWR VPWR sky130_fd_sc_hd__fill_1
XFILLER_0_8_82 VGND VGND VPWR VPWR sky130_fd_sc_hd__fill_2
XFILLER_0_4_29 VPWR VGND VPWR VGND sky130_ef_sc_hd__decap_12
XFILLER_0_14_41 VPWR VGND VPWR VGND sky130_ef_sc_hd__decap_12
XFILLER_0_14_85 VPWR VGND VPWR VGND sky130_ef_sc_hd__decap_12
XFILLER_0_25_40 VGND VGND VPWR VPWR sky130_fd_sc_hd__fill_1
XFILLER_0_5_94 VGND VGND VPWR VPWR sky130_fd_sc_hd__fill_1
X_161_ _071_ _079_ VGND VGND VPWR VPWR net5 sky130_fd_sc_hd__nand2_1
X_230_ _114_ VGND VGND VPWR VPWR _038_ sky130_fd_sc_hd__inv_2
XPHY_EDGE_ROW_23_Left_55 VGND VGND VPWR VPWR sky130_fd_sc_hd__decap_3
XTAP_TAPCELL_ROW_29_125 VGND VPWR sky130_fd_sc_hd__tapvpwrvgnd_1
X_213_ _116_ _066_ _111_ decoder.delay\[19\] VGND VGND VPWR VPWR _010_ sky130_fd_sc_hd__o2bb2a_1
X_144_ decoder.delay\[20\] _116_ _066_ VGND VGND VPWR VPWR _073_ sky130_fd_sc_hd__and3_1
XTAP_TAPCELL_ROW_6_79 VGND VPWR sky130_fd_sc_hd__tapvpwrvgnd_1
XFILLER_0_22_41 VPWR VGND VPWR VGND sky130_ef_sc_hd__decap_12
X_127_ decoder.delay\[5\] decoder.delay\[4\] decoder.delay\[7\] decoder.delay\[6\]
+ VGND VGND VPWR VPWR _060_ sky130_fd_sc_hd__and4_1
XTAP_TAPCELL_ROW_31_131 VGND VPWR sky130_fd_sc_hd__tapvpwrvgnd_1
XPHY_EDGE_ROW_10_Left_42 VGND VGND VPWR VPWR sky130_fd_sc_hd__decap_3
XTAP_TAPCELL_ROW_16_99 VGND VPWR sky130_fd_sc_hd__tapvpwrvgnd_1
Xclkbuf_0_CLK100MHZ CLK100MHZ VGND VGND VPWR VPWR clknet_0_CLK100MHZ sky130_fd_sc_hd__clkbuf_16
XFILLER_0_30_85 VPWR VGND VPWR VGND sky130_ef_sc_hd__decap_12
XFILLER_0_30_41 VPWR VGND VPWR VGND sky130_ef_sc_hd__decap_12
XFILLER_0_14_53 VPWR VGND VPWR VGND sky130_ef_sc_hd__decap_12
XFILLER_0_14_97 VGND VGND VPWR VPWR sky130_fd_sc_hd__decap_6
Xclkbuf_2_0__f_CLK100MHZ clknet_0_CLK100MHZ VGND VGND VPWR VPWR clknet_2_0__leaf_CLK100MHZ
+ sky130_fd_sc_hd__clkbuf_16
XFILLER_0_18_117 VGND VGND VPWR VPWR sky130_fd_sc_hd__decap_8
X_160_ decoder.count\[3\] decoder.count\[1\] _080_ VGND VGND VPWR VPWR net3 sky130_fd_sc_hd__o21a_1
XFILLER_0_15_109 VGND VGND VPWR VPWR sky130_fd_sc_hd__decap_3
XPHY_EDGE_ROW_27_Right_27 VGND VGND VPWR VPWR sky130_fd_sc_hd__decap_3
XPHY_EDGE_ROW_18_Right_18 VGND VGND VPWR VPWR sky130_fd_sc_hd__decap_3
X_143_ _116_ _066_ decoder.delay\[20\] VGND VGND VPWR VPWR _072_ sky130_fd_sc_hd__a21oi_1
X_212_ decoder.delay\[17\] decoder.delay\[16\] decoder.delay\[18\] _061_ VGND VGND
+ VPWR VPWR _111_ sky130_fd_sc_hd__and4_1
XFILLER_0_22_53 VGND VGND VPWR VPWR sky130_fd_sc_hd__decap_6
XFILLER_0_22_20 VGND VGND VPWR VPWR sky130_fd_sc_hd__decap_8
XTAP_TAPCELL_ROW_26_118 VGND VPWR sky130_fd_sc_hd__tapvpwrvgnd_1
X_126_ decoder.delay\[1\] decoder.delay\[0\] decoder.delay\[2\] decoder.delay\[3\]
+ VGND VGND VPWR VPWR _059_ sky130_fd_sc_hd__and4_2
XTAP_TAPCELL_ROW_22_110 VGND VPWR sky130_fd_sc_hd__tapvpwrvgnd_1
XPHY_EDGE_ROW_0_Right_0 VGND VGND VPWR VPWR sky130_fd_sc_hd__decap_3
XFILLER_0_28_85 VPWR VGND VPWR VGND sky130_ef_sc_hd__decap_12
XFILLER_0_28_63 VGND VGND VPWR VPWR sky130_fd_sc_hd__fill_1
XFILLER_0_8_62 VPWR VGND VPWR VGND sky130_ef_sc_hd__decap_12
XFILLER_0_30_97 VGND VGND VPWR VPWR sky130_fd_sc_hd__decap_8
XFILLER_0_30_53 VPWR VGND VPWR VGND sky130_ef_sc_hd__decap_12
XFILLER_0_14_65 VGND VGND VPWR VPWR sky130_fd_sc_hd__decap_8
XFILLER_0_12_3 VPWR VGND VPWR VGND sky130_ef_sc_hd__decap_12
XFILLER_0_5_30 VGND VGND VPWR VPWR sky130_fd_sc_hd__fill_2
XFILLER_0_1_3 VPWR VGND VPWR VGND sky130_ef_sc_hd__decap_12
X_211_ decoder.delay\[18\] _110_ VGND VGND VPWR VPWR _009_ sky130_fd_sc_hd__xor2_1
X_142_ _071_ _067_ _070_ VGND VGND VPWR VPWR _054_ sky130_fd_sc_hd__a21oi_1
XFILLER_0_20_124 VGND VGND VPWR VPWR sky130_fd_sc_hd__fill_1
XTAP_TAPCELL_ROW_26_119 VGND VPWR sky130_fd_sc_hd__tapvpwrvgnd_1
XFILLER_0_11_102 VGND VGND VPWR VPWR sky130_fd_sc_hd__decap_6
XFILLER_0_11_113 VGND VGND VPWR VPWR sky130_fd_sc_hd__fill_1
X_125_ decoder.delay\[13\] decoder.delay\[12\] decoder.delay\[15\] decoder.delay\[14\]
+ VGND VGND VPWR VPWR _058_ sky130_fd_sc_hd__and4_1
XTAP_TAPCELL_ROW_7_80 VGND VPWR sky130_fd_sc_hd__tapvpwrvgnd_1
XFILLER_0_17_65 VGND VGND VPWR VPWR sky130_fd_sc_hd__decap_3
XTAP_TAPCELL_ROW_22_111 VGND VPWR sky130_fd_sc_hd__tapvpwrvgnd_1
XFILLER_0_28_97 VPWR VGND VPWR VGND sky130_ef_sc_hd__decap_12
XFILLER_0_0_124 VGND VGND VPWR VPWR sky130_fd_sc_hd__fill_1
XFILLER_0_0_113 VGND VGND VPWR VPWR sky130_fd_sc_hd__decap_4
XFILLER_0_8_74 VGND VGND VPWR VPWR sky130_fd_sc_hd__decap_8
XFILLER_0_8_85 VGND VGND VPWR VPWR sky130_fd_sc_hd__decap_4
XFILLER_0_30_65 VPWR VGND VPWR VGND sky130_ef_sc_hd__decap_12
XFILLER_0_25_54 VGND VGND VPWR VPWR sky130_fd_sc_hd__fill_2
XFILLER_0_25_10 VPWR VGND VPWR VGND sky130_ef_sc_hd__decap_12
XFILLER_0_14_111 VPWR VGND VPWR VGND sky130_ef_sc_hd__decap_12
X_141_ decoder.count\[0\] VGND VGND VPWR VPWR _071_ sky130_fd_sc_hd__inv_2
XPHY_EDGE_ROW_27_Left_59 VGND VGND VPWR VPWR sky130_fd_sc_hd__decap_3
XFILLER_0_22_11 VGND VGND VPWR VPWR sky130_fd_sc_hd__fill_2
X_210_ _109_ _110_ VGND VGND VPWR VPWR _008_ sky130_fd_sc_hd__nor2_1
X_124_ decoder.delay\[9\] decoder.delay\[8\] decoder.delay\[11\] decoder.delay\[10\]
+ VGND VGND VPWR VPWR _119_ sky130_fd_sc_hd__and4_1
XTAP_TAPCELL_ROW_7_81 VGND VPWR sky130_fd_sc_hd__tapvpwrvgnd_1
XFILLER_0_17_55 VGND VGND VPWR VPWR sky130_fd_sc_hd__fill_1
XFILLER_0_28_21 VGND VGND VPWR VPWR sky130_fd_sc_hd__fill_1
XPHY_EDGE_ROW_14_Left_46 VGND VGND VPWR VPWR sky130_fd_sc_hd__decap_3
XFILLER_0_30_77 VGND VGND VPWR VPWR sky130_fd_sc_hd__decap_6
XFILLER_0_25_22 VPWR VGND VPWR VGND sky130_ef_sc_hd__decap_12
XFILLER_0_18_109 VGND VGND VPWR VPWR sky130_fd_sc_hd__fill_1
XFILLER_0_5_10 VPWR VGND VPWR VGND sky130_ef_sc_hd__decap_12
XFILLER_0_5_65 VGND VGND VPWR VPWR sky130_fd_sc_hd__fill_2
XFILLER_0_5_98 VPWR VGND VPWR VGND sky130_ef_sc_hd__decap_12
XFILLER_0_11_24 VPWR VGND VPWR VGND sky130_ef_sc_hd__decap_12
XFILLER_0_11_57 VPWR VGND VPWR VGND sky130_ef_sc_hd__decap_12
XFILLER_0_14_123 VGND VGND VPWR VPWR sky130_fd_sc_hd__fill_2
XPHY_EDGE_ROW_23_Right_23 VGND VGND VPWR VPWR sky130_fd_sc_hd__decap_3
X_140_ decoder.count\[1\] _070_ VGND VGND VPWR VPWR _055_ sky130_fd_sc_hd__xor2_1
XPHY_EDGE_ROW_2_Left_34 VGND VGND VPWR VPWR sky130_fd_sc_hd__decap_3
XPHY_EDGE_ROW_14_Right_14 VGND VGND VPWR VPWR sky130_fd_sc_hd__decap_3
XFILLER_0_2_77 VGND VGND VPWR VPWR sky130_fd_sc_hd__decap_6
X_269_ clknet_2_0__leaf_CLK100MHZ _010_ _048_ VGND VGND VPWR VPWR decoder.delay\[19\]
+ sky130_fd_sc_hd__dfrtp_1
X_123_ decoder.delay\[22\] decoder.delay\[23\] _116_ _117_ VGND VGND VPWR VPWR _118_
+ sky130_fd_sc_hd__and4_2
XFILLER_0_28_3 VPWR VGND VPWR VGND sky130_ef_sc_hd__decap_12
XFILLER_0_28_55 VGND VGND VPWR VPWR sky130_fd_sc_hd__fill_1
XPHY_EDGE_ROW_4_Right_4 VGND VGND VPWR VPWR sky130_fd_sc_hd__decap_3
XPHY_EDGE_ROW_31_Left_63 VGND VGND VPWR VPWR sky130_fd_sc_hd__decap_3
XFILLER_0_25_34 VGND VGND VPWR VPWR sky130_fd_sc_hd__decap_6
XFILLER_0_5_22 VGND VGND VPWR VPWR sky130_fd_sc_hd__decap_8
XFILLER_0_10_3 VGND VGND VPWR VPWR sky130_fd_sc_hd__decap_8
XFILLER_0_23_113 VGND VGND VPWR VPWR sky130_fd_sc_hd__decap_6
XFILLER_0_11_36 VPWR VGND VPWR VGND sky130_ef_sc_hd__decap_12
XFILLER_0_11_69 VPWR VGND VPWR VGND sky130_ef_sc_hd__decap_12
X_199_ decoder.delay\[12\] _103_ VGND VGND VPWR VPWR _003_ sky130_fd_sc_hd__xnor2_1
X_268_ clknet_2_0__leaf_CLK100MHZ _009_ _047_ VGND VGND VPWR VPWR decoder.delay\[18\]
+ sky130_fd_sc_hd__dfrtp_2
X_122_ decoder.delay\[20\] decoder.delay\[21\] VGND VGND VPWR VPWR _117_ sky130_fd_sc_hd__and2_1
XFILLER_0_17_13 VPWR VGND VPWR VGND sky130_ef_sc_hd__decap_12
XFILLER_0_17_57 VGND VGND VPWR VPWR sky130_fd_sc_hd__decap_8