*SPEF "ieee 1481-1999"
*DESIGN "inverter"
*DATE "15:19:06 Sunday April 27, 2025"
*VENDOR "The OpenROAD Project"
*PROGRAM "OpenROAD"
*VERSION "b16bda7e82721d10566ff7e2b68f1ff0be9f9e38"
*DESIGN_FLOW "NAME_SCOPE LOCAL" "PIN_CAP NONE"
*DIVIDER /
*DELIMITER :
*BUS_DELIMITER []
*T_UNIT 1 NS
*C_UNIT 1 PF
*R_UNIT 1 OHM
*L_UNIT 1 HENRY

*NAME_MAP
*3 in[0]
*4 in[1]
*5 in[2]
*6 in[3]
*7 in[4]
*8 in[5]
*9 in[6]
*10 in[7]
*11 out[0]
*12 out[1]
*13 out[2]
*14 out[3]
*15 out[4]
*16 out[5]
*17 out[6]
*18 out[7]
*19 net1
*20 net10
*21 net11
*22 net12
*23 net13
*24 net14
*25 net15
*26 net16
*27 net2
*28 net3
*29 net4
*30 net5
*31 net6
*32 net7
*33 net8
*34 net9
*35 FILLER_0_0_18
*36 FILLER_0_0_26
*37 FILLER_0_0_29
*38 FILLER_0_0_37
*39 FILLER_0_0_9
*40 FILLER_0_10_18
*41 FILLER_0_10_26
*42 FILLER_0_10_29
*43 FILLER_0_10_41
*44 FILLER_0_10_6
*45 FILLER_0_11_15
*46 FILLER_0_11_27
*47 FILLER_0_11_3
*48 FILLER_0_11_39
*49 FILLER_0_11_47
*50 FILLER_0_12_21
*51 FILLER_0_12_27
*52 FILLER_0_12_29
*53 FILLER_0_12_37
*54 FILLER_0_12_9
*55 FILLER_0_1_15
*56 FILLER_0_1_20
*57 FILLER_0_1_3
*58 FILLER_0_1_32
*59 FILLER_0_1_44
*60 FILLER_0_2_11
*61 FILLER_0_2_15
*62 FILLER_0_2_27
*63 FILLER_0_2_29
*64 FILLER_0_2_3
*65 FILLER_0_2_41
*66 FILLER_0_2_47
*67 FILLER_0_3_18
*68 FILLER_0_3_30
*69 FILLER_0_3_42
*70 FILLER_0_3_6
*71 FILLER_0_4_15
*72 FILLER_0_4_19
*73 FILLER_0_4_23
*74 FILLER_0_4_27
*75 FILLER_0_4_29
*76 FILLER_0_4_3
*77 FILLER_0_4_41
*78 FILLER_0_4_47
*79 FILLER_0_5_18
*80 FILLER_0_5_30
*81 FILLER_0_5_42
*82 FILLER_0_5_6
*83 FILLER_0_6_18
*84 FILLER_0_6_26
*85 FILLER_0_6_29
*86 FILLER_0_6_3
*87 FILLER_0_6_41
*88 FILLER_0_6_47
*89 FILLER_0_7_15
*90 FILLER_0_7_27
*91 FILLER_0_7_3
*92 FILLER_0_7_39
*93 FILLER_0_7_44
*94 FILLER_0_8_18
*95 FILLER_0_8_26
*96 FILLER_0_8_29
*97 FILLER_0_8_6
*98 FILLER_0_9_15
*99 FILLER_0_9_19
*100 FILLER_0_9_23
*101 FILLER_0_9_3
*102 FILLER_0_9_35
*103 FILLER_0_9_47
*104 PHY_EDGE_ROW_0_Left_13
*105 PHY_EDGE_ROW_0_Right_0
*106 PHY_EDGE_ROW_10_Left_23
*107 PHY_EDGE_ROW_10_Right_10
*108 PHY_EDGE_ROW_11_Left_24
*109 PHY_EDGE_ROW_11_Right_11
*110 PHY_EDGE_ROW_12_Left_25
*111 PHY_EDGE_ROW_12_Right_12
*112 PHY_EDGE_ROW_1_Left_14
*113 PHY_EDGE_ROW_1_Right_1
*114 PHY_EDGE_ROW_2_Left_15
*115 PHY_EDGE_ROW_2_Right_2
*116 PHY_EDGE_ROW_3_Left_16
*117 PHY_EDGE_ROW_3_Right_3
*118 PHY_EDGE_ROW_4_Left_17
*119 PHY_EDGE_ROW_4_Right_4
*120 PHY_EDGE_ROW_5_Left_18
*121 PHY_EDGE_ROW_5_Right_5
*122 PHY_EDGE_ROW_6_Left_19
*123 PHY_EDGE_ROW_6_Right_6
*124 PHY_EDGE_ROW_7_Left_20
*125 PHY_EDGE_ROW_7_Right_7
*126 PHY_EDGE_ROW_8_Left_21
*127 PHY_EDGE_ROW_8_Right_8
*128 PHY_EDGE_ROW_9_Left_22
*129 PHY_EDGE_ROW_9_Right_9
*130 TAP_TAPCELL_ROW_0_26
*131 TAP_TAPCELL_ROW_10_31
*132 TAP_TAPCELL_ROW_12_32
*133 TAP_TAPCELL_ROW_2_27
*134 TAP_TAPCELL_ROW_4_28
*135 TAP_TAPCELL_ROW_6_29
*136 TAP_TAPCELL_ROW_8_30
*137 _0_
*138 _1_
*139 _2_
*140 _3_
*141 _4_
*142 _5_
*143 _6_
*144 _7_
*145 input1
*146 input2
*147 input3
*148 input4
*149 input5
*150 input6
*151 input7
*152 input8
*153 output10
*154 output11
*155 output12
*156 output13
*157 output14
*158 output15
*159 output16
*160 output9

*PORTS
in[0] I
in[1] I
in[2] I
in[3] I
in[4] I
in[5] I
in[6] I
in[7] I
out[0] O
out[1] O
out[2] O
out[3] O
out[4] O
out[5] O
out[6] O
out[7] O

*D_NET *3 0.00101438
*CONN
*P in[0] I
*I *145:A I *D sky130_fd_sc_hd__buf_1
*CAP
1 in[0] 0.000507191
2 *145:A 0.000507191
3 *145:A *146:A 0
*RES
1 in[0] *145:A 10.2018 
*END

*D_NET *4 0.000760629
*CONN
*P in[1] I
*I *146:A I *D sky130_fd_sc_hd__buf_1
*CAP
1 in[1] 0.000355334
2 *146:A 0.000355334
3 *146:A *143:A 4.99619e-05
4 *146:A *147:A 0
5 *145:A *146:A 0
*RES
1 in[1] *146:A 8.2293 
*END

*D_NET *5 0.000531065
*CONN
*P in[2] I
*I *147:A I *D sky130_fd_sc_hd__clkbuf_1
*CAP
1 in[2] 0.000265532
2 *147:A 0.000265532
3 *147:A *148:A 0
4 *146:A *147:A 0
*RES
1 in[2] *147:A 6.8343 
*END

*D_NET *6 0.000645774
*CONN
*P in[3] I
*I *148:A I *D sky130_fd_sc_hd__clkbuf_1
*CAP
1 in[3] 0.000322887
2 *148:A 0.000322887
3 *148:A *138:A 0
4 *148:A *143:A 0
5 *148:A *149:A 0
6 *147:A *148:A 0
*RES
1 in[3] *148:A 7.8543 
*END

*D_NET *7 0.0005615
*CONN
*P in[4] I
*I *149:A I *D sky130_fd_sc_hd__clkbuf_1
*CAP
1 in[4] 0.00028075
2 *149:A 0.00028075
3 *149:A *143:A 0
4 *149:A *150:A 0
5 *148:A *149:A 0
*RES
1 in[4] *149:A 7.0893 
*END

*D_NET *8 0.000666425
*CONN
*P in[5] I
*I *150:A I *D sky130_fd_sc_hd__clkbuf_1
*CAP
1 in[5] 0.000333212
2 *150:A 0.000333212
3 *150:A *143:A 0
4 *150:A *151:A 0
5 *149:A *150:A 0
*RES
1 in[5] *150:A 8.1093 
*END

*D_NET *9 0.000523624
*CONN
*P in[6] I
*I *151:A I *D sky130_fd_sc_hd__clkbuf_1
*CAP
1 in[6] 0.000261812
2 *151:A 0.000261812
3 *151:A *152:A 0
4 *150:A *151:A 0
*RES
1 in[6] *151:A 6.8343 
*END

*D_NET *10 0.00116029
*CONN
*P in[7] I
*I *152:A I *D sky130_fd_sc_hd__buf_1
*CAP
1 in[7] 0.000575392
2 *152:A 0.000575392
3 *152:A *143:A 9.50342e-06
4 *151:A *152:A 0
*RES
1 in[7] *152:A 10.6316 
*END

*D_NET *11 0.00109227
*CONN
*P out[0] O
*I *160:X O *D sky130_fd_sc_hd__buf_2
*CAP
1 out[0] 0.000546133
2 *160:X 0.000546133
3 out[0] out[1] 0
*RES
1 *160:X out[0] 9.66983 
*END

*D_NET *12 0.000411239
*CONN
*P out[1] O
*I *153:X O *D sky130_fd_sc_hd__buf_2
*CAP
1 out[1] 0.00020562
2 *153:X 0.00020562
3 out[1] out[2] 0
4 out[0] out[1] 0
*RES
1 *153:X out[1] 4.84677 
*END

*D_NET *13 0.000413408
*CONN
*P out[2] O
*I *154:X O *D sky130_fd_sc_hd__buf_2
*CAP
1 out[2] 0.000200848
2 *154:X 0.000200848
3 out[2] out[3] 0
4 out[2] *154:A 1.17114e-05
5 out[1] out[2] 0
*RES
1 *154:X out[2] 4.84677 
*END

*D_NET *14 0.000556923
*CONN
*P out[3] O
*I *155:X O *D sky130_fd_sc_hd__buf_2
*CAP
1 out[3] 0.000248117
2 *155:X 0.000248117
3 out[3] out[4] 0
4 out[3] *155:A 6.06899e-05
5 out[2] out[3] 0
*RES
1 *155:X out[3] 5.86677 
*END

*D_NET *15 0.000410041
*CONN
*P out[4] O
*I *156:X O *D sky130_fd_sc_hd__buf_2
*CAP
1 out[4] 0.00020502
2 *156:X 0.00020502
3 out[4] out[5] 0
4 out[4] *159:A 0
5 out[3] out[4] 0
*RES
1 *156:X out[4] 4.84677 
*END

*D_NET *16 0.000540837
*CONN
*P out[5] O
*I *157:X O *D sky130_fd_sc_hd__buf_2
*CAP
1 out[5] 0.000270419
2 *157:X 0.000270419
3 out[5] out[6] 0
4 out[5] *159:A 0
5 out[4] out[5] 0
*RES
1 *157:X out[5] 5.86677 
*END

*D_NET *17 0.000735482
*CONN
*P out[6] O
*I *158:X O *D sky130_fd_sc_hd__buf_2
*CAP
1 out[6] 0.000367741
2 *158:X 0.000367741
3 out[6] out[7] 0
4 out[5] out[6] 0
*RES
1 *158:X out[6] 5.19637 
*END

*D_NET *18 0.000971234
*CONN
*P out[7] O
*I *159:X O *D sky130_fd_sc_hd__clkbuf_4
*CAP
1 out[7] 0.000485617
2 *159:X 0.000485617
3 out[6] out[7] 0
*RES
1 *159:X out[7] 10.1435 
*END

*D_NET *19 0.0046548
*CONN
*I *143:A I *D sky130_fd_sc_hd__inv_2
*I *145:X O *D sky130_fd_sc_hd__buf_1
*CAP
1 *143:A 0.00118713
2 *145:X 0.00118713
3 *143:A *138:A 0.00018116
4 *143:A *141:A 1.31297e-05
5 *143:A *142:A 0.000275315
6 *143:A *144:A 0.00175146
7 *146:A *143:A 4.99619e-05
8 *148:A *143:A 0
9 *149:A *143:A 0
10 *150:A *143:A 0
11 *152:A *143:A 9.50342e-06
*RES
1 *145:X *143:A 34.935 
*END

*D_NET *20 0.0042819
*CONN
*I *153:A I *D sky130_fd_sc_hd__buf_2
*I *144:Y O *D sky130_fd_sc_hd__inv_2
*CAP
1 *153:A 0.00214095
2 *144:Y 0.00214095
3 *153:A *160:A 0
*RES
1 *144:Y *153:A 37.95 
*END

*D_NET *21 0.000638299
*CONN
*I *154:A I *D sky130_fd_sc_hd__buf_2
*I *137:Y O *D sky130_fd_sc_hd__inv_2
*CAP
1 *154:A 0.000241712
2 *137:Y 0.000241712
3 *154:A *137:A 7.24779e-05
4 *154:A *156:A 7.06865e-05
5 *154:A *160:A 0
6 out[2] *154:A 1.17114e-05
*RES
1 *137:Y *154:A 11.415 
*END

*D_NET *22 0.00245869
*CONN
*I *155:A I *D sky130_fd_sc_hd__buf_2
*I *138:Y O *D sky130_fd_sc_hd__inv_2
*CAP
1 *155:A 0.00104978
2 *138:Y 0.00104978
3 *155:A *156:A 0.000298442
4 out[3] *155:A 6.06899e-05
*RES
1 *138:Y *155:A 20.385 
*END

*D_NET *23 0.00280913
*CONN
*I *156:A I *D sky130_fd_sc_hd__buf_2
*I *139:Y O *D sky130_fd_sc_hd__inv_2
*CAP
1 *156:A 0.000980953
2 *139:Y 0.000980953
3 *156:A *137:A 7.89611e-05
4 *156:A *142:A 4.03082e-05
5 *156:A *159:A 0.000297747
6 *156:A *160:A 6.10789e-05
7 *154:A *156:A 7.06865e-05
8 *155:A *156:A 0.000298442
*RES
1 *139:Y *156:A 22.845 
*END

*D_NET *24 0.00170547
*CONN
*I *157:A I *D sky130_fd_sc_hd__buf_2
*I *140:Y O *D sky130_fd_sc_hd__inv_2
*CAP
1 *157:A 0.000819971
2 *140:Y 0.000819971
3 *157:A *159:A 6.5525e-05
*RES
1 *140:Y *157:A 16.62 
*END

*D_NET *25 0.00151782
*CONN
*I *158:A I *D sky130_fd_sc_hd__buf_2
*I *141:Y O *D sky130_fd_sc_hd__inv_2
*CAP
1 *158:A 0.00073019
2 *141:Y 0.00073019
3 *158:A *142:A 7.21296e-06
4 *158:A *159:A 0
5 *158:A *160:A 5.02217e-05
*RES
1 *141:Y *158:A 15.84 
*END

*D_NET *26 0.00254075
*CONN
*I *159:A I *D sky130_fd_sc_hd__clkbuf_4
*I *142:Y O *D sky130_fd_sc_hd__inv_2
*CAP
1 *159:A 0.000492071
2 *142:Y 0.000492071
3 *159:A *142:A 0.00119334
4 out[4] *159:A 0
5 out[5] *159:A 0
6 *156:A *159:A 0.000297747
7 *157:A *159:A 6.5525e-05
8 *158:A *159:A 0
*RES
1 *142:Y *159:A 21.525 
*END

*D_NET *27 0.00358505
*CONN
*I *144:A I *D sky130_fd_sc_hd__inv_2
*I *146:X O *D sky130_fd_sc_hd__buf_1
*CAP
1 *144:A 0.000916796
2 *146:X 0.000916796
3 *143:A *144:A 0.00175146
*RES
1 *146:X *144:A 28.68 
*END

*D_NET *28 0.00299959
*CONN
*I *137:A I *D sky130_fd_sc_hd__inv_2
*I *147:X O *D sky130_fd_sc_hd__clkbuf_1
*CAP
1 *137:A 0.0012645
2 *147:X 0.0012645
3 *137:A *160:A 0.000319153
4 *154:A *137:A 7.24779e-05
5 *156:A *137:A 7.89611e-05
*RES
1 *147:X *137:A 23.4 
*END

*D_NET *29 0.000996425
*CONN
*I *138:A I *D sky130_fd_sc_hd__inv_2
*I *148:X O *D sky130_fd_sc_hd__clkbuf_1
*CAP
1 *138:A 0.000407632
2 *148:X 0.000407632
3 *143:A *138:A 0.00018116
4 *148:A *138:A 0
*RES
1 *148:X *138:A 14.43 
*END

*D_NET *30 0.00195758
*CONN
*I *139:A I *D sky130_fd_sc_hd__inv_2
*I *149:X O *D sky130_fd_sc_hd__clkbuf_1
*CAP
1 *139:A 0.000978788
2 *149:X 0.000978788
*RES
1 *149:X *139:A 20.235 
*END

*D_NET *31 0.00109786
*CONN
*I *140:A I *D sky130_fd_sc_hd__inv_2
*I *150:X O *D sky130_fd_sc_hd__clkbuf_1
*CAP
1 *140:A 0.000548929
2 *150:X 0.000548929
*RES
1 *150:X *140:A 14.88 
*END

*D_NET *32 0.00110773
*CONN
*I *141:A I *D sky130_fd_sc_hd__inv_2
*I *151:X O *D sky130_fd_sc_hd__clkbuf_1
*CAP
1 *141:A 0.000433803
2 *151:X 0.000433803
3 *141:A *142:A 0.000178069
4 *141:A *160:A 4.89295e-05
5 *143:A *141:A 1.31297e-05
*RES
1 *151:X *141:A 13.08 
*END

*D_NET *33 0.0052799
*CONN
*I *142:A I *D sky130_fd_sc_hd__inv_2
*I *152:X O *D sky130_fd_sc_hd__buf_1
*CAP
1 *142:A 0.000710331
2 *152:X 0.000710331
3 *142:A *160:A 0.002165
4 *141:A *142:A 0.000178069
5 *143:A *142:A 0.000275315
6 *156:A *142:A 4.03082e-05
7 *158:A *142:A 7.21296e-06
8 *159:A *142:A 0.00119334
*RES
1 *152:X *142:A 33.435 
*END

*D_NET *34 0.00554484
*CONN
*I *160:A I *D sky130_fd_sc_hd__buf_2
*I *143:Y O *D sky130_fd_sc_hd__inv_2
*CAP
1 *160:A 0.00145023
2 *143:Y 0.00145023
3 *137:A *160:A 0.000319153
4 *141:A *160:A 4.89295e-05
5 *142:A *160:A 0.002165
6 *153:A *160:A 0
7 *154:A *160:A 0
8 *156:A *160:A 6.10789e-05
9 *158:A *160:A 5.02217e-05
*RES
1 *143:Y *160:A 39.66 
*END
